*SPEF "IEEE 1481-1999"
*DESIGN "simpleuart"
*DATE "Mon Mar 24 15:32:30 2025"
*VENDOR "SYNOPSYS INC"
*PROGRAM "Synopsys Design Compiler (R) NXT cmos"
*VERSION "T-2022.03-SP4"
*DESIGN_FLOW "SYNTHESIS"
*DIVIDER /
*DELIMITER :
*BUS_DELIMITER []
*T_UNIT 1.0 NS
*C_UNIT 0.0010 PF
*R_UNIT 1000.0 KOHM
*L_UNIT 1.0 HENRY

*PORTS

clk I *L 0.000e+00 *S 0.000e+00 0.000e+00 
resetn I *L 0.000e+00 *S 0.000e+00 0.000e+00 
ser_tx O *L 5.000e-01 *S 8.910e-03 1.077e-02 
ser_rx I *L 0.000e+00 *S 0.000e+00 0.000e+00 
reg_div_we\[3\] I *L 0.000e+00 *S 0.000e+00 0.000e+00 
reg_div_we\[2\] I *L 0.000e+00 *S 0.000e+00 0.000e+00 
reg_div_we\[1\] I *L 0.000e+00 *S 0.000e+00 0.000e+00 
reg_div_we\[0\] I *L 0.000e+00 *S 0.000e+00 0.000e+00 
reg_div_di\[31\] I *L 0.000e+00 *S 0.000e+00 0.000e+00 
reg_div_di\[30\] I *L 0.000e+00 *S 0.000e+00 0.000e+00 
reg_div_di\[29\] I *L 0.000e+00 *S 0.000e+00 0.000e+00 
reg_div_di\[28\] I *L 0.000e+00 *S 0.000e+00 0.000e+00 
reg_div_di\[27\] I *L 0.000e+00 *S 0.000e+00 0.000e+00 
reg_div_di\[26\] I *L 0.000e+00 *S 0.000e+00 0.000e+00 
reg_div_di\[25\] I *L 0.000e+00 *S 0.000e+00 0.000e+00 
reg_div_di\[24\] I *L 0.000e+00 *S 0.000e+00 0.000e+00 
reg_div_di\[23\] I *L 0.000e+00 *S 0.000e+00 0.000e+00 
reg_div_di\[22\] I *L 0.000e+00 *S 0.000e+00 0.000e+00 
reg_div_di\[21\] I *L 0.000e+00 *S 0.000e+00 0.000e+00 
reg_div_di\[20\] I *L 0.000e+00 *S 0.000e+00 0.000e+00 
reg_div_di\[19\] I *L 0.000e+00 *S 0.000e+00 0.000e+00 
reg_div_di\[18\] I *L 0.000e+00 *S 0.000e+00 0.000e+00 
reg_div_di\[17\] I *L 0.000e+00 *S 0.000e+00 0.000e+00 
reg_div_di\[16\] I *L 0.000e+00 *S 0.000e+00 0.000e+00 
reg_div_di\[15\] I *L 0.000e+00 *S 0.000e+00 0.000e+00 
reg_div_di\[14\] I *L 0.000e+00 *S 0.000e+00 0.000e+00 
reg_div_di\[13\] I *L 0.000e+00 *S 0.000e+00 0.000e+00 
reg_div_di\[12\] I *L 0.000e+00 *S 0.000e+00 0.000e+00 
reg_div_di\[11\] I *L 0.000e+00 *S 0.000e+00 0.000e+00 
reg_div_di\[10\] I *L 0.000e+00 *S 0.000e+00 0.000e+00 
reg_div_di\[9\] I *L 0.000e+00 *S 0.000e+00 0.000e+00 
reg_div_di\[8\] I *L 0.000e+00 *S 0.000e+00 0.000e+00 
reg_div_di\[7\] I *L 0.000e+00 *S 0.000e+00 0.000e+00 
reg_div_di\[6\] I *L 0.000e+00 *S 0.000e+00 0.000e+00 
reg_div_di\[5\] I *L 0.000e+00 *S 0.000e+00 0.000e+00 
reg_div_di\[4\] I *L 0.000e+00 *S 0.000e+00 0.000e+00 
reg_div_di\[3\] I *L 0.000e+00 *S 0.000e+00 0.000e+00 
reg_div_di\[2\] I *L 0.000e+00 *S 0.000e+00 0.000e+00 
reg_div_di\[1\] I *L 0.000e+00 *S 0.000e+00 0.000e+00 
reg_div_di\[0\] I *L 0.000e+00 *S 0.000e+00 0.000e+00 
reg_div_do\[31\] O *L 5.000e-01 *S 1.808e-02 1.728e-02 
reg_div_do\[30\] O *L 5.000e-01 *S 1.134e-02 1.322e-02 
reg_div_do\[29\] O *L 5.000e-01 *S 9.527e-03 1.139e-02 
reg_div_do\[28\] O *L 5.000e-01 *S 1.330e-02 1.477e-02 
reg_div_do\[27\] O *L 5.000e-01 *S 1.868e-02 1.760e-02 
reg_div_do\[26\] O *L 5.000e-01 *S 1.461e-02 1.545e-02 
reg_div_do\[25\] O *L 5.000e-01 *S 1.334e-02 1.479e-02 
reg_div_do\[24\] O *L 5.000e-01 *S 1.764e-02 1.705e-02 
reg_div_do\[23\] O *L 5.000e-01 *S 1.484e-02 1.558e-02 
reg_div_do\[22\] O *L 5.000e-01 *S 1.768e-02 1.707e-02 
reg_div_do\[21\] O *L 5.000e-01 *S 1.905e-02 1.779e-02 
reg_div_do\[20\] O *L 5.000e-01 *S 1.501e-02 1.567e-02 
reg_div_do\[19\] O *L 5.000e-01 *S 1.615e-02 1.627e-02 
reg_div_do\[18\] O *L 5.000e-01 *S 1.371e-02 1.498e-02 
reg_div_do\[17\] O *L 5.000e-01 *S 2.126e-02 1.896e-02 
reg_div_do\[16\] O *L 5.000e-01 *S 1.492e-02 1.562e-02 
reg_div_do\[15\] O *L 5.000e-01 *S 1.357e-02 1.491e-02 
reg_div_do\[14\] O *L 5.000e-01 *S 1.504e-02 1.568e-02 
reg_div_do\[13\] O *L 5.000e-01 *S 1.238e-02 1.427e-02 
reg_div_do\[12\] O *L 5.000e-01 *S 1.281e-02 1.451e-02 
reg_div_do\[11\] O *L 5.000e-01 *S 1.309e-02 1.466e-02 
reg_div_do\[10\] O *L 5.000e-01 *S 1.313e-02 1.468e-02 
reg_div_do\[9\] O *L 5.000e-01 *S 1.368e-02 1.497e-02 
reg_div_do\[8\] O *L 5.000e-01 *S 1.406e-02 1.516e-02 
reg_div_do\[7\] O *L 5.000e-01 *S 2.053e-02 1.857e-02 
reg_div_do\[6\] O *L 5.000e-01 *S 2.399e-02 2.048e-02 
reg_div_do\[5\] O *L 5.000e-01 *S 1.546e-02 1.590e-02 
reg_div_do\[4\] O *L 5.000e-01 *S 2.235e-02 1.957e-02 
reg_div_do\[3\] O *L 5.000e-01 *S 2.730e-02 2.233e-02 
reg_div_do\[2\] O *L 5.000e-01 *S 1.140e-02 1.328e-02 
reg_div_do\[1\] O *L 5.000e-01 *S 1.877e-02 1.764e-02 
reg_div_do\[0\] O *L 5.000e-01 *S 1.330e-02 1.477e-02 
reg_dat_we I *L 0.000e+00 *S 0.000e+00 0.000e+00 
reg_dat_re I *L 0.000e+00 *S 0.000e+00 0.000e+00 
reg_dat_di\[31\] I *L 0.000e+00 *S 0.000e+00 0.000e+00 
reg_dat_di\[30\] I *L 0.000e+00 *S 0.000e+00 0.000e+00 
reg_dat_di\[29\] I *L 0.000e+00 *S 0.000e+00 0.000e+00 
reg_dat_di\[28\] I *L 0.000e+00 *S 0.000e+00 0.000e+00 
reg_dat_di\[27\] I *L 0.000e+00 *S 0.000e+00 0.000e+00 
reg_dat_di\[26\] I *L 0.000e+00 *S 0.000e+00 0.000e+00 
reg_dat_di\[25\] I *L 0.000e+00 *S 0.000e+00 0.000e+00 
reg_dat_di\[24\] I *L 0.000e+00 *S 0.000e+00 0.000e+00 
reg_dat_di\[23\] I *L 0.000e+00 *S 0.000e+00 0.000e+00 
reg_dat_di\[22\] I *L 0.000e+00 *S 0.000e+00 0.000e+00 
reg_dat_di\[21\] I *L 0.000e+00 *S 0.000e+00 0.000e+00 
reg_dat_di\[20\] I *L 0.000e+00 *S 0.000e+00 0.000e+00 
reg_dat_di\[19\] I *L 0.000e+00 *S 0.000e+00 0.000e+00 
reg_dat_di\[18\] I *L 0.000e+00 *S 0.000e+00 0.000e+00 
reg_dat_di\[17\] I *L 0.000e+00 *S 0.000e+00 0.000e+00 
reg_dat_di\[16\] I *L 0.000e+00 *S 0.000e+00 0.000e+00 
reg_dat_di\[15\] I *L 0.000e+00 *S 0.000e+00 0.000e+00 
reg_dat_di\[14\] I *L 0.000e+00 *S 0.000e+00 0.000e+00 
reg_dat_di\[13\] I *L 0.000e+00 *S 0.000e+00 0.000e+00 
reg_dat_di\[12\] I *L 0.000e+00 *S 0.000e+00 0.000e+00 
reg_dat_di\[11\] I *L 0.000e+00 *S 0.000e+00 0.000e+00 
reg_dat_di\[10\] I *L 0.000e+00 *S 0.000e+00 0.000e+00 
reg_dat_di\[9\] I *L 0.000e+00 *S 0.000e+00 0.000e+00 
reg_dat_di\[8\] I *L 0.000e+00 *S 0.000e+00 0.000e+00 
reg_dat_di\[7\] I *L 0.000e+00 *S 0.000e+00 0.000e+00 
reg_dat_di\[6\] I *L 0.000e+00 *S 0.000e+00 0.000e+00 
reg_dat_di\[5\] I *L 0.000e+00 *S 0.000e+00 0.000e+00 
reg_dat_di\[4\] I *L 0.000e+00 *S 0.000e+00 0.000e+00 
reg_dat_di\[3\] I *L 0.000e+00 *S 0.000e+00 0.000e+00 
reg_dat_di\[2\] I *L 0.000e+00 *S 0.000e+00 0.000e+00 
reg_dat_di\[1\] I *L 0.000e+00 *S 0.000e+00 0.000e+00 
reg_dat_di\[0\] I *L 0.000e+00 *S 0.000e+00 0.000e+00 
reg_dat_do\[31\] O *L 5.000e-01 *S 1.828e-01 1.851e-01 
reg_dat_do\[30\] O *L 5.000e-01 *S 1.828e-01 1.851e-01 
reg_dat_do\[29\] O *L 5.000e-01 *S 1.828e-01 1.851e-01 
reg_dat_do\[28\] O *L 5.000e-01 *S 1.828e-01 1.851e-01 
reg_dat_do\[27\] O *L 5.000e-01 *S 1.828e-01 1.851e-01 
reg_dat_do\[26\] O *L 5.000e-01 *S 1.828e-01 1.851e-01 
reg_dat_do\[25\] O *L 5.000e-01 *S 1.828e-01 1.851e-01 
reg_dat_do\[24\] O *L 5.000e-01 *S 1.828e-01 1.851e-01 
reg_dat_do\[23\] O *L 5.000e-01 *S 1.828e-01 1.851e-01 
reg_dat_do\[22\] O *L 5.000e-01 *S 1.828e-01 1.851e-01 
reg_dat_do\[21\] O *L 5.000e-01 *S 1.828e-01 1.851e-01 
reg_dat_do\[20\] O *L 5.000e-01 *S 1.828e-01 1.851e-01 
reg_dat_do\[19\] O *L 5.000e-01 *S 1.828e-01 1.851e-01 
reg_dat_do\[18\] O *L 5.000e-01 *S 1.828e-01 1.851e-01 
reg_dat_do\[17\] O *L 5.000e-01 *S 1.828e-01 1.851e-01 
reg_dat_do\[16\] O *L 5.000e-01 *S 1.828e-01 1.851e-01 
reg_dat_do\[15\] O *L 5.000e-01 *S 1.828e-01 1.851e-01 
reg_dat_do\[14\] O *L 5.000e-01 *S 1.828e-01 1.851e-01 
reg_dat_do\[13\] O *L 5.000e-01 *S 1.828e-01 1.851e-01 
reg_dat_do\[12\] O *L 5.000e-01 *S 1.828e-01 1.851e-01 
reg_dat_do\[11\] O *L 5.000e-01 *S 1.828e-01 1.851e-01 
reg_dat_do\[10\] O *L 5.000e-01 *S 1.828e-01 1.851e-01 
reg_dat_do\[9\] O *L 5.000e-01 *S 1.828e-01 1.851e-01 
reg_dat_do\[8\] O *L 5.000e-01 *S 1.828e-01 1.851e-01 
reg_dat_do\[7\] O *L 5.000e-01 *S 5.016e-03 5.508e-03 
reg_dat_do\[6\] O *L 5.000e-01 *S 5.140e-03 5.642e-03 
reg_dat_do\[5\] O *L 5.000e-01 *S 5.693e-03 6.237e-03 
reg_dat_do\[4\] O *L 5.000e-01 *S 5.214e-03 5.721e-03 
reg_dat_do\[3\] O *L 5.000e-01 *S 4.520e-03 4.974e-03 
reg_dat_do\[2\] O *L 5.000e-01 *S 4.709e-03 5.177e-03 
reg_dat_do\[1\] O *L 5.000e-01 *S 5.429e-03 5.953e-03 
reg_dat_do\[0\] O *L 5.000e-01 *S 5.823e-03 6.377e-03 
reg_dat_wait O *L 5.000e-01 *S 1.064e-02 1.062e-02 

*R_NET clk 2.265e+01
*DRIVER clk
*CELL NULL
*C2_R1_C1 1.133e+01 8.179e-05 1.133e+01 
*LOADS
*RC clk_gate_cfg_divider_reg_0/latch:CK 4.929e-07
*RC clk_gate_cfg_divider_reg_1/latch:CK 4.929e-07
*RC clk_gate_cfg_divider_reg_2/latch:CK 4.929e-07
*RC clk_gate_recv_pattern_reg/latch:CK 4.929e-07
*RC clk_gate_recv_state_reg/latch:CK 4.929e-07
*RC clk_gate_recv_buf_data_reg/latch:CK 4.929e-07
*RC clk_gate_send_pattern_reg/latch:CK 4.929e-07
*RC send_divcnt_reg_31_:CK 3.196e-07
*RC send_divcnt_reg_30_:CK 3.196e-07
*RC send_divcnt_reg_29_:CK 3.196e-07
*RC send_divcnt_reg_28_:CK 3.196e-07
*RC send_divcnt_reg_27_:CK 3.196e-07
*RC send_divcnt_reg_26_:CK 3.196e-07
*RC send_divcnt_reg_25_:CK 3.196e-07
*RC send_divcnt_reg_24_:CK 3.196e-07
*RC send_divcnt_reg_23_:CK 3.196e-07
*RC send_divcnt_reg_22_:CK 3.196e-07
*RC send_divcnt_reg_21_:CK 3.196e-07
*RC send_divcnt_reg_20_:CK 3.196e-07
*RC send_divcnt_reg_19_:CK 3.196e-07
*RC send_divcnt_reg_18_:CK 3.196e-07
*RC send_divcnt_reg_17_:CK 3.196e-07
*RC send_divcnt_reg_16_:CK 3.196e-07
*RC send_divcnt_reg_15_:CK 3.196e-07
*RC send_divcnt_reg_14_:CK 3.196e-07
*RC send_divcnt_reg_13_:CK 3.196e-07
*RC send_divcnt_reg_12_:CK 3.196e-07
*RC send_divcnt_reg_11_:CK 3.196e-07
*RC send_divcnt_reg_10_:CK 3.196e-07
*RC send_divcnt_reg_9_:CK 3.196e-07
*RC send_divcnt_reg_8_:CK 3.196e-07
*RC send_divcnt_reg_7_:CK 3.196e-07
*RC send_divcnt_reg_6_:CK 3.196e-07
*RC send_divcnt_reg_5_:CK 3.196e-07
*RC send_divcnt_reg_4_:CK 3.196e-07
*RC send_divcnt_reg_3_:CK 3.196e-07
*RC send_divcnt_reg_2_:CK 3.196e-07
*RC send_divcnt_reg_1_:CK 3.196e-07
*RC send_divcnt_reg_0_:CK 3.196e-07
*RC send_dummy_reg:CK 3.196e-07
*RC recv_divcnt_reg_31_:CK 3.196e-07
*RC recv_divcnt_reg_30_:CK 3.196e-07
*RC recv_divcnt_reg_29_:CK 3.196e-07
*RC recv_divcnt_reg_28_:CK 3.196e-07
*RC recv_divcnt_reg_27_:CK 3.196e-07
*RC recv_divcnt_reg_26_:CK 3.196e-07
*RC recv_divcnt_reg_25_:CK 3.196e-07
*RC recv_divcnt_reg_24_:CK 3.196e-07
*RC recv_divcnt_reg_23_:CK 3.196e-07
*RC recv_divcnt_reg_22_:CK 3.196e-07
*RC recv_divcnt_reg_21_:CK 3.196e-07
*RC recv_divcnt_reg_20_:CK 3.196e-07
*RC recv_divcnt_reg_19_:CK 3.196e-07
*RC recv_divcnt_reg_18_:CK 3.196e-07
*RC recv_divcnt_reg_17_:CK 3.196e-07
*RC recv_divcnt_reg_16_:CK 3.196e-07
*RC recv_divcnt_reg_15_:CK 3.196e-07
*RC recv_divcnt_reg_14_:CK 3.196e-07
*RC recv_divcnt_reg_13_:CK 3.196e-07
*RC recv_divcnt_reg_0_:CK 3.196e-07
*RC recv_divcnt_reg_1_:CK 3.196e-07
*RC recv_divcnt_reg_2_:CK 3.196e-07
*RC recv_divcnt_reg_3_:CK 3.196e-07
*RC recv_divcnt_reg_4_:CK 3.196e-07
*RC recv_divcnt_reg_5_:CK 3.196e-07
*RC recv_divcnt_reg_6_:CK 3.196e-07
*RC recv_divcnt_reg_7_:CK 3.196e-07
*RC recv_divcnt_reg_8_:CK 3.196e-07
*RC recv_divcnt_reg_9_:CK 3.196e-07
*RC recv_divcnt_reg_10_:CK 3.196e-07
*RC recv_divcnt_reg_11_:CK 3.196e-07
*RC recv_divcnt_reg_12_:CK 3.196e-07
*RC recv_buf_valid_reg:CK 3.196e-07
*RC clk_gate_cfg_divider_reg/latch:CK 4.929e-07
*END

*R_NET resetn 1.681e+00
*DRIVER resetn
*CELL NULL
*C2_R1_C1 8.406e-01 2.349e-05 8.406e-01 
*LOADS
*RC U399:A 1.703e-05
*RC U396:A 1.525e-05
*END

*R_NET ser_tx 1.375e+00
*DRIVER send_pattern_reg_0_:Q
*CELL SAEDRVT14_FSDPQ_V2LP_1
*C2_R1_C1 6.874e-01 1.939e-05 6.874e-01 
*LOADS
*RC ser_tx 1.535e-05
*END

*R_NET ser_rx 1.020e+00
*DRIVER ser_rx
*CELL NULL
*C2_R1_C1 5.099e-01 1.274e-05 5.099e-01 
*LOADS
*RC U438:A2 5.300e-06
*RC U491:A1 6.349e-06
*END

*R_NET reg_div_we\[3\] 2.026e+00
*DRIVER reg_div_we\[3\]
*CELL NULL
*C2_R1_C1 1.013e+00 4.105e-05 1.013e+00 
*LOADS
*RC U529:A1 3.275e-05
*RC U607:A1 3.069e-05
*END

*R_NET reg_div_we\[2\] 2.063e+00
*DRIVER reg_div_we\[2\]
*CELL NULL
*C2_R1_C1 1.031e+00 3.906e-05 1.031e+00 
*LOADS
*RC U528:A1 3.117e-05
*RC U607:A2 3.425e-05
*END

*R_NET reg_div_we\[1\] 2.009e+00
*DRIVER reg_div_we\[1\]
*CELL NULL
*C2_R1_C1 1.004e+00 3.953e-05 1.004e+00 
*LOADS
*RC U527:A1 2.781e-05
*RC U607:A4 3.276e-05
*END

*R_NET reg_div_we\[0\] 1.924e+00
*DRIVER reg_div_we\[0\]
*CELL NULL
*C2_R1_C1 9.619e-01 3.790e-05 9.619e-01 
*LOADS
*RC U526:A1 2.626e-05
*RC U607:A3 3.072e-05
*END

*R_NET reg_div_di\[31\] 1.724e+00
*DRIVER reg_div_di\[31\]
*CELL NULL
*C2_R1_C1 8.621e-01 3.067e-05 8.621e-01 
*LOADS
*RC U525:A2 2.346e-05
*END

*R_NET reg_div_di\[30\] 3.298e-01
*DRIVER reg_div_di\[30\]
*CELL NULL
*C2_R1_C1 1.649e-01 5.681e-06 1.649e-01 
*LOADS
*RC U524:A2 1.706e-06
*END

*R_NET reg_div_di\[29\] 4.710e-01
*DRIVER reg_div_di\[29\]
*CELL NULL
*C2_R1_C1 2.355e-01 9.098e-06 2.355e-01 
*LOADS
*RC U523:A2 3.161e-06
*END

*R_NET reg_div_di\[28\] 6.738e-01
*DRIVER reg_div_di\[28\]
*CELL NULL
*C2_R1_C1 3.369e-01 1.395e-05 3.369e-01 
*LOADS
*RC U522:A2 5.790e-06
*END

*R_NET reg_div_di\[27\] 1.638e+00
*DRIVER reg_div_di\[27\]
*CELL NULL
*C2_R1_C1 8.192e-01 2.918e-05 8.192e-01 
*LOADS
*RC U521:A2 2.149e-05
*END

*R_NET reg_div_di\[26\] 9.565e-01
*DRIVER reg_div_di\[26\]
*CELL NULL
*C2_R1_C1 4.783e-01 2.061e-05 4.783e-01 
*LOADS
*RC U520:A2 1.050e-05
*END

*R_NET reg_div_di\[25\] 1.432e+00
*DRIVER reg_div_di\[25\]
*CELL NULL
*C2_R1_C1 7.158e-01 2.599e-05 7.158e-01 
*LOADS
*RC U519:A2 1.735e-05
*END

*R_NET reg_div_di\[24\] 1.785e+00
*DRIVER reg_div_di\[24\]
*CELL NULL
*C2_R1_C1 8.924e-01 3.165e-05 8.924e-01 
*LOADS
*RC U518:A2 2.485e-05
*END

*R_NET reg_div_di\[23\] 2.125e+00
*DRIVER reg_div_di\[23\]
*CELL NULL
*C2_R1_C1 1.062e+00 4.991e-05 1.062e+00 
*LOADS
*RC U517:A2 4.485e-05
*END

*R_NET reg_div_di\[22\] 2.123e+00
*DRIVER reg_div_di\[22\]
*CELL NULL
*C2_R1_C1 1.061e+00 4.988e-05 1.061e+00 
*LOADS
*RC U516:A2 4.479e-05
*END

*R_NET reg_div_di\[21\] 1.023e+00
*DRIVER reg_div_di\[21\]
*CELL NULL
*C2_R1_C1 5.116e-01 2.220e-05 5.116e-01 
*LOADS
*RC U515:A2 1.180e-05
*END

*R_NET reg_div_di\[20\] 1.537e+00
*DRIVER reg_div_di\[20\]
*CELL NULL
*C2_R1_C1 7.684e-01 2.767e-05 7.684e-01 
*LOADS
*RC U514:A2 1.944e-05
*END

*R_NET reg_div_di\[19\] 1.374e+00
*DRIVER reg_div_di\[19\]
*CELL NULL
*C2_R1_C1 6.870e-01 3.292e-05 6.870e-01 
*LOADS
*RC U513:A2 2.135e-05
*END

*R_NET reg_div_di\[18\] 1.913e+00
*DRIVER reg_div_di\[18\]
*CELL NULL
*C2_R1_C1 9.565e-01 4.520e-05 9.565e-01 
*LOADS
*RC U512:A2 3.742e-05
*END

*R_NET reg_div_di\[17\] 1.869e+00
*DRIVER reg_div_di\[17\]
*CELL NULL
*C2_R1_C1 9.344e-01 4.413e-05 9.344e-01 
*LOADS
*RC U511:A2 3.589e-05
*END

*R_NET reg_div_di\[16\] 1.424e+00
*DRIVER reg_div_di\[16\]
*CELL NULL
*C2_R1_C1 7.118e-01 2.577e-05 7.118e-01 
*LOADS
*RC U510:A2 1.713e-05
*END

*R_NET reg_div_di\[15\] 1.373e+00
*DRIVER reg_div_di\[15\]
*CELL NULL
*C2_R1_C1 6.864e-01 2.217e-05 6.864e-01 
*LOADS
*RC U509:A2 1.437e-05
*END

*R_NET reg_div_di\[14\] 1.518e+00
*DRIVER reg_div_di\[14\]
*CELL NULL
*C2_R1_C1 7.590e-01 2.736e-05 7.590e-01 
*LOADS
*RC U508:A2 1.905e-05
*END

*R_NET reg_div_di\[13\] 1.316e+00
*DRIVER reg_div_di\[13\]
*CELL NULL
*C2_R1_C1 6.578e-01 2.133e-05 6.578e-01 
*LOADS
*RC U507:A2 1.342e-05
*END

*R_NET reg_div_di\[12\] 1.362e+00
*DRIVER reg_div_di\[12\]
*CELL NULL
*C2_R1_C1 6.812e-01 2.208e-05 6.812e-01 
*LOADS
*RC U506:A2 1.423e-05
*END

*R_NET reg_div_di\[11\] 1.394e+00
*DRIVER reg_div_di\[11\]
*CELL NULL
*C2_R1_C1 6.970e-01 2.263e-05 6.970e-01 
*LOADS
*RC U505:A2 1.482e-05
*END

*R_NET reg_div_di\[10\] 1.376e+00
*DRIVER reg_div_di\[10\]
*CELL NULL
*C2_R1_C1 6.880e-01 2.229e-05 6.880e-01 
*LOADS
*RC U504:A2 1.447e-05
*END

*R_NET reg_div_di\[9\] 1.379e+00
*DRIVER reg_div_di\[9\]
*CELL NULL
*C2_R1_C1 6.895e-01 2.246e-05 6.895e-01 
*LOADS
*RC U503:A2 1.460e-05
*END

*R_NET reg_div_di\[8\] 6.596e-01
*DRIVER reg_div_di\[8\]
*CELL NULL
*C2_R1_C1 3.298e-01 1.361e-05 3.298e-01 
*LOADS
*RC U502:A2 5.586e-06
*END

*R_NET reg_div_di\[7\] 2.159e+00
*DRIVER reg_div_di\[7\]
*CELL NULL
*C2_R1_C1 1.079e+00 3.755e-05 1.079e+00 
*LOADS
*RC U501:A2 3.417e-05
*END

*R_NET reg_div_di\[6\] 2.207e+00
*DRIVER reg_div_di\[6\]
*CELL NULL
*C2_R1_C1 1.103e+00 3.817e-05 1.103e+00 
*LOADS
*RC U500:A2 3.535e-05
*END

*R_NET reg_div_di\[5\] 2.235e+00
*DRIVER reg_div_di\[5\]
*CELL NULL
*C2_R1_C1 1.117e+00 3.895e-05 1.117e+00 
*LOADS
*RC U499:A2 3.643e-05
*END

*R_NET reg_div_di\[4\] 2.133e+00
*DRIVER reg_div_di\[4\]
*CELL NULL
*C2_R1_C1 1.066e+00 3.740e-05 1.066e+00 
*LOADS
*RC U498:A2 3.371e-05
*END

*R_NET reg_div_di\[3\] 2.345e+00
*DRIVER reg_div_di\[3\]
*CELL NULL
*C2_R1_C1 1.173e+00 4.080e-05 1.173e+00 
*LOADS
*RC U497:A2 3.966e-05
*END

*R_NET reg_div_di\[2\] 8.045e-01
*DRIVER reg_div_di\[2\]
*CELL NULL
*C2_R1_C1 4.022e-01 1.702e-05 4.022e-01 
*LOADS
*RC U496:A2 7.805e-06
*END

*R_NET reg_div_di\[1\] 1.277e+00
*DRIVER reg_div_di\[1\]
*CELL NULL
*C2_R1_C1 6.384e-01 2.079e-05 6.384e-01 
*LOADS
*RC U495:A2 1.281e-05
*END

*R_NET reg_div_di\[0\] 2.058e+00
*DRIVER reg_div_di\[0\]
*CELL NULL
*C2_R1_C1 1.029e+00 5.086e-05 1.029e+00 
*LOADS
*RC U494:A1 4.175e-05
*END

*R_NET reg_div_do\[31\] 2.684e+00
*DRIVER cfg_divider_reg_31_:Q
*CELL SAEDRVT14_FSDPQ_V2LP_1
*C2_R1_C1 1.342e+00 3.178e-05 1.342e+00 
*LOADS
*RC gt_x_5/U238:A 1.130e-05
*RC gt_x_27/U243:A 1.077e-05
*RC reg_div_do\[31\] 3.481e-05
*RC gt_x_35/U243:A 1.266e-05
*END

*R_NET reg_div_do\[30\] 1.842e+00
*DRIVER cfg_divider_reg_30_:Q
*CELL SAEDRVT14_FSDPQ_V2LP_1
*C2_R1_C1 9.210e-01 2.112e-05 9.210e-01 
*LOADS
*RC gt_x_5/U243:A 1.336e-05
*RC gt_x_27/U241:A 7.882e-06
*RC reg_div_do\[30\] 1.239e-05
*RC gt_x_35/U241:A 1.148e-05
*END

*R_NET reg_div_do\[29\] 1.494e+00
*DRIVER cfg_divider_reg_29_:Q
*CELL SAEDRVT14_FSDPQ_V2LP_1
*C2_R1_C1 7.468e-01 1.524e-05 7.468e-01 
*LOADS
*RC gt_x_5/U241:A 6.883e-06
*RC gt_x_27/U248:A 5.716e-06
*RC reg_div_do\[29\] 9.804e-06
*RC gt_x_35/U248:A 7.866e-06
*END

*R_NET reg_div_do\[28\] 2.148e+00
*DRIVER cfg_divider_reg_28_:Q
*CELL SAEDRVT14_FSDPQ_V2LP_1
*C2_R1_C1 1.074e+00 2.595e-05 1.074e+00 
*LOADS
*RC gt_x_5/U229:A 1.651e-05
*RC gt_x_27/U246:A 8.085e-06
*RC reg_div_do\[28\] 2.012e-05
*RC gt_x_35/U246:A 1.565e-05
*END

*R_NET reg_div_do\[27\] 2.752e+00
*DRIVER cfg_divider_reg_27_:Q
*CELL SAEDRVT14_FSDPQ_V2LP_1
*C2_R1_C1 1.376e+00 3.320e-05 1.376e+00 
*LOADS
*RC gt_x_5/U227:A 1.995e-05
*RC gt_x_27/U232:A 1.314e-05
*RC reg_div_do\[27\] 3.457e-05
*RC gt_x_35/U232:A 2.077e-05
*END

*R_NET reg_div_do\[26\] 2.294e+00
*DRIVER cfg_divider_reg_26_:Q
*CELL SAEDRVT14_FSDPQ_V2LP_1
*C2_R1_C1 1.147e+00 2.633e-05 1.147e+00 
*LOADS
*RC gt_x_5/U234:A 1.203e-05
*RC gt_x_27/U230:A 7.833e-06
*RC reg_div_do\[26\] 2.731e-05
*RC gt_x_35/U230:A 1.356e-05
*END

*R_NET reg_div_do\[25\] 2.152e+00
*DRIVER cfg_divider_reg_25_:Q
*CELL SAEDRVT14_FSDPQ_V2LP_1
*C2_R1_C1 1.076e+00 2.433e-05 1.076e+00 
*LOADS
*RC gt_x_5/U232:A 6.311e-06
*RC gt_x_27/U237:A 7.245e-06
*RC reg_div_do\[25\] 2.407e-05
*RC gt_x_35/U237:A 6.274e-06
*END

*R_NET reg_div_do\[24\] 2.635e+00
*DRIVER cfg_divider_reg_24_:Q
*CELL SAEDRVT14_FSDPQ_V2LP_1
*C2_R1_C1 1.317e+00 3.157e-05 1.317e+00 
*LOADS
*RC gt_x_5/U261:A 1.573e-05
*RC gt_x_27/U235:A 1.167e-05
*RC reg_div_do\[24\] 3.384e-05
*RC gt_x_35/U235:A 1.539e-05
*END

*R_NET reg_div_do\[23\] 2.321e+00
*DRIVER cfg_divider_reg_23_:Q
*CELL SAEDRVT14_FSDPQ_V2LP_1
*C2_R1_C1 1.160e+00 2.670e-05 1.160e+00 
*LOADS
*RC gt_x_5/U259:A 9.881e-06
*RC gt_x_27/U266:A 9.842e-06
*RC reg_div_do\[23\] 2.562e-05
*RC gt_x_35/U266:A 8.098e-06
*END

*R_NET reg_div_do\[22\] 2.640e+00
*DRIVER cfg_divider_reg_22_:Q
*CELL SAEDRVT14_FSDPQ_V2LP_1
*C2_R1_C1 1.320e+00 3.165e-05 1.320e+00 
*LOADS
*RC gt_x_5/U266:A 1.302e-05
*RC gt_x_27/U264:A 1.040e-05
*RC reg_div_do\[22\] 3.438e-05
*RC gt_x_35/U264:A 1.180e-05
*END

*R_NET reg_div_do\[21\] 2.793e+00
*DRIVER cfg_divider_reg_21_:Q
*CELL SAEDRVT14_FSDPQ_V2LP_1
*C2_R1_C1 1.396e+00 3.377e-05 1.396e+00 
*LOADS
*RC gt_x_5/U264:A 2.317e-05
*RC gt_x_27/U271:A 9.211e-06
*RC reg_div_do\[21\] 3.952e-05
*RC gt_x_35/U271:A 1.839e-05
*END

*R_NET reg_div_do\[20\] 2.340e+00
*DRIVER cfg_divider_reg_20_:Q
*CELL SAEDRVT14_FSDPQ_V2LP_1
*C2_R1_C1 1.170e+00 2.745e-05 1.170e+00 
*LOADS
*RC gt_x_5/U250:A 9.734e-06
*RC gt_x_27/U269:A 8.560e-06
*RC reg_div_do\[20\] 2.566e-05
*RC gt_x_35/U269:A 8.451e-06
*END

*R_NET reg_div_do\[19\] 2.468e+00
*DRIVER cfg_divider_reg_19_:Q
*CELL SAEDRVT14_FSDPQ_V2LP_1
*C2_R1_C1 1.234e+00 3.664e-05 1.234e+00 
*LOADS
*RC gt_x_5/U248:A 8.913e-06
*RC gt_x_27/U255:A 8.091e-06
*RC reg_div_do\[19\] 3.963e-05
*RC gt_x_35/U255:A 8.849e-06
*END

*R_NET reg_div_do\[18\] 2.194e+00
*DRIVER cfg_divider_reg_18_:Q
*CELL SAEDRVT14_FSDPQ_V2LP_1
*C2_R1_C1 1.097e+00 2.492e-05 1.097e+00 
*LOADS
*RC gt_x_5/U255:A 9.632e-06
*RC gt_x_27/U253:A 6.360e-06
*RC reg_div_do\[18\] 2.602e-05
*RC gt_x_35/U253:A 9.514e-06
*END

*R_NET reg_div_do\[17\] 3.041e+00
*DRIVER cfg_divider_reg_17_:Q
*CELL SAEDRVT14_FSDPQ_V2LP_1
*C2_R1_C1 1.521e+00 4.638e-05 1.521e+00 
*LOADS
*RC gt_x_5/U253:A 1.293e-05
*RC gt_x_27/U260:A 1.019e-05
*RC reg_div_do\[17\] 5.986e-05
*RC gt_x_35/U260:A 1.145e-05
*END

*R_NET reg_div_do\[16\] 2.329e+00
*DRIVER cfg_divider_reg_16_:Q
*CELL SAEDRVT14_FSDPQ_V2LP_1
*C2_R1_C1 1.165e+00 2.682e-05 1.165e+00 
*LOADS
*RC gt_x_5/U201:A 8.282e-06
*RC gt_x_27/U258:A 9.143e-06
*RC reg_div_do\[16\] 2.607e-05
*RC gt_x_35/U258:A 7.217e-06
*END

*R_NET reg_div_do\[15\] 2.178e+00
*DRIVER cfg_divider_reg_15_:Q
*CELL SAEDRVT14_FSDPQ_V2LP_1
*C2_R1_C1 1.089e+00 2.517e-05 1.089e+00 
*LOADS
*RC gt_x_5/U199:A 8.939e-06
*RC gt_x_27/U170:A 8.246e-06
*RC reg_div_do\[15\] 2.190e-05
*RC gt_x_35/U170:A 6.951e-06
*END

*R_NET reg_div_do\[14\] 2.343e+00
*DRIVER cfg_divider_reg_14_:Q
*CELL SAEDRVT14_FSDPQ_V2LP_1
*C2_R1_C1 1.172e+00 2.748e-05 1.172e+00 
*LOADS
*RC gt_x_5/U206:A 1.180e-05
*RC gt_x_27/U168:A 9.352e-06
*RC reg_div_do\[14\] 2.728e-05
*RC gt_x_35/U168:A 9.325e-06
*END

*R_NET reg_div_do\[13\] 2.042e+00
*DRIVER cfg_divider_reg_13_:Q
*CELL SAEDRVT14_FSDPQ_V2LP_1
*C2_R1_C1 1.021e+00 2.274e-05 1.021e+00 
*LOADS
*RC gt_x_5/U204:A 9.398e-06
*RC gt_x_27/U175:A 7.561e-06
*RC reg_div_do\[13\] 2.095e-05
*RC gt_x_35/U175:A 7.057e-06
*END

*R_NET reg_div_do\[12\] 2.092e+00
*DRIVER cfg_divider_reg_12_:Q
*CELL SAEDRVT14_FSDPQ_V2LP_1
*C2_R1_C1 1.046e+00 2.348e-05 1.046e+00 
*LOADS
*RC gt_x_5/U190:A 9.118e-06
*RC gt_x_27/U173:A 7.453e-06
*RC reg_div_do\[12\] 2.204e-05
*RC gt_x_35/U173:A 1.043e-05
*END

*R_NET reg_div_do\[11\] 2.124e+00
*DRIVER cfg_divider_reg_11_:Q
*CELL SAEDRVT14_FSDPQ_V2LP_1
*C2_R1_C1 1.062e+00 2.393e-05 1.062e+00 
*LOADS
*RC gt_x_5/U188:A 1.028e-05
*RC gt_x_27/U159:A 5.911e-06
*RC reg_div_do\[11\] 2.416e-05
*RC gt_x_35/U159:A 1.011e-05
*END

*R_NET reg_div_do\[10\] 2.129e+00
*DRIVER cfg_divider_reg_10_:Q
*CELL SAEDRVT14_FSDPQ_V2LP_1
*C2_R1_C1 1.064e+00 2.448e-05 1.064e+00 
*LOADS
*RC gt_x_5/U195:A 9.630e-06
*RC gt_x_27/U157:A 7.809e-06
*RC reg_div_do\[10\] 2.075e-05
*RC gt_x_35/U157:A 9.280e-06
*END

*R_NET reg_div_do\[9\] 2.190e+00
*DRIVER cfg_divider_reg_9_:Q
*CELL SAEDRVT14_FSDPQ_V2LP_1
*C2_R1_C1 1.095e+00 2.543e-05 1.095e+00 
*LOADS
*RC gt_x_5/U193:A 9.392e-06
*RC gt_x_27/U164:A 1.013e-05
*RC reg_div_do\[9\] 2.368e-05
*RC gt_x_35/U164:A 1.051e-05
*END

*R_NET reg_div_do\[8\] 2.232e+00
*DRIVER cfg_divider_reg_8_:Q
*CELL SAEDRVT14_FSDPQ_V2LP_1
*C2_R1_C1 1.116e+00 2.552e-05 1.116e+00 
*LOADS
*RC gt_x_5/U171:A 1.318e-05
*RC gt_x_27/U162:A 6.024e-06
*RC reg_div_do\[8\] 2.707e-05
*RC gt_x_35/U162:A 1.124e-05
*END

*R_NET reg_div_do\[7\] 2.960e+00
*DRIVER cfg_divider_reg_7_:Q
*CELL SAEDRVT14_FSDPQ_V2LP_1
*C2_R1_C1 1.480e+00 3.864e-05 1.480e+00 
*LOADS
*RC gt_x_5/U169:A 3.160e-05
*RC gt_x_27/U197:A 9.751e-06
*RC reg_div_do\[7\] 3.481e-05
*RC gt_x_35/U197:A 3.512e-05
*END

*R_NET reg_div_do\[6\] 3.347e+00
*DRIVER cfg_divider_reg_6_:Q
*CELL SAEDRVT14_FSDPQ_V2LP_1
*C2_R1_C1 1.674e+00 4.233e-05 1.674e+00 
*LOADS
*RC gt_x_5/U176:A 3.100e-05
*RC gt_x_27/U195:A 1.292e-05
*RC reg_div_do\[6\] 5.129e-05
*RC gt_x_35/U195:A 3.354e-05
*END

*R_NET reg_div_do\[5\] 2.389e+00
*DRIVER cfg_divider_reg_5_:Q
*CELL SAEDRVT14_FSDPQ_V2LP_1
*C2_R1_C1 1.195e+00 2.884e-05 1.195e+00 
*LOADS
*RC gt_x_5/U174:A 2.210e-05
*RC gt_x_27/U202:A 9.061e-06
*RC reg_div_do\[5\] 1.947e-05
*RC gt_x_35/U202:A 1.917e-05
*END

*R_NET reg_div_do\[4\] 3.164e+00
*DRIVER cfg_divider_reg_4_:Q
*CELL SAEDRVT14_FSDPQ_V2LP_1
*C2_R1_C1 1.582e+00 3.888e-05 1.582e+00 
*LOADS
*RC gt_x_5/U156:A 1.344e-05
*RC gt_x_27/U200:A 1.191e-05
*RC reg_div_do\[4\] 4.667e-05
*RC gt_x_35/U200:A 1.845e-05
*END

*R_NET reg_div_do\[3\] 3.719e+00
*DRIVER cfg_divider_reg_3_:Q
*CELL SAEDRVT14_FSDPQ_V2LP_1
*C2_R1_C1 1.860e+00 4.542e-05 1.860e+00 
*LOADS
*RC gt_x_5/U154:A 1.855e-05
*RC gt_x_27/U182:A 1.505e-05
*RC reg_div_do\[3\] 6.411e-05
*RC gt_x_35/U182:A 2.185e-05
*END

*R_NET reg_div_do\[2\] 1.853e+00
*DRIVER cfg_divider_reg_2_:Q
*CELL SAEDRVT14_FSDPQ_V2LP_1
*C2_R1_C1 9.265e-01 2.272e-05 9.265e-01 
*LOADS
*RC gt_x_35/U180:A 1.219e-05
*RC gt_x_27/U180:A 7.711e-06
*RC reg_div_do\[2\] 1.847e-05
*RC gt_x_5/U159:A 1.044e-05
*END

*R_NET reg_div_do\[1\] 2.762e+00
*DRIVER cfg_divider_reg_1_:Q
*CELL SAEDRVT14_FSDPQ_V2LP_1
*C2_R1_C1 1.381e+00 3.935e-05 1.381e+00 
*LOADS
*RC gt_x_5/U161:A 2.377e-05
*RC gt_x_27/U187:A 2.077e-05
*RC reg_div_do\[1\] 3.942e-05
*RC gt_x_35/U187:A 2.359e-05
*END

*R_NET reg_div_do\[0\] 2.147e+00
*DRIVER cfg_divider_reg_0_:Q
*CELL SAEDRVT14_FSDPQ_V2LP_1
*C2_R1_C1 1.074e+00 3.361e-05 1.074e+00 
*LOADS
*RC gt_x_35/U185:A 1.455e-05
*RC reg_div_do\[0\] 3.218e-05
*RC gt_x_27/U185:A 1.369e-05
*END

*R_NET reg_dat_we 1.591e+00
*DRIVER reg_dat_we
*CELL NULL
*C2_R1_C1 7.956e-01 1.723e-05 7.956e-01 
*LOADS
*RC U413:A2 1.073e-05
*RC U432:B 1.132e-05
*RC U558:A2 1.175e-05
*END

*R_NET reg_dat_re 8.198e-01
*DRIVER reg_dat_re
*CELL NULL
*C2_R1_C1 4.099e-01 1.450e-05 4.099e-01 
*LOADS
*RC U610:A1 6.328e-06
*END

*R_NET reg_dat_di\[7\] 3.229e-01
*DRIVER reg_dat_di\[7\]
*CELL NULL
*C2_R1_C1 1.615e-01 6.179e-06 1.615e-01 
*LOADS
*RC U415:A2 1.645e-06
*END

*R_NET reg_dat_di\[6\] 2.490e-01
*DRIVER reg_dat_di\[6\]
*CELL NULL
*C2_R1_C1 1.245e-01 5.265e-06 1.245e-01 
*LOADS
*RC U557:A2 1.203e-06
*END

*R_NET reg_dat_di\[5\] 4.874e-01
*DRIVER reg_dat_di\[5\]
*CELL NULL
*C2_R1_C1 2.437e-01 9.336e-06 2.437e-01 
*LOADS
*RC U555:A2 2.875e-06
*END

*R_NET reg_dat_di\[4\] 5.184e-01
*DRIVER reg_dat_di\[4\]
*CELL NULL
*C2_R1_C1 2.592e-01 9.776e-06 2.592e-01 
*LOADS
*RC U553:A2 3.111e-06
*END

*R_NET reg_dat_di\[3\] 3.078e-01
*DRIVER reg_dat_di\[3\]
*CELL NULL
*C2_R1_C1 1.539e-01 6.199e-06 1.539e-01 
*LOADS
*RC U551:A2 1.538e-06
*END

*R_NET reg_dat_di\[2\] 7.193e-01
*DRIVER reg_dat_di\[2\]
*CELL NULL
*C2_R1_C1 3.597e-01 1.324e-05 3.597e-01 
*LOADS
*RC U549:A2 5.100e-06
*END

*R_NET reg_dat_di\[1\] 7.174e-01
*DRIVER reg_dat_di\[1\]
*CELL NULL
*C2_R1_C1 3.587e-01 1.314e-05 3.587e-01 
*LOADS
*RC U547:A2 5.053e-06
*END

*R_NET reg_dat_di\[0\] 8.315e-01
*DRIVER reg_dat_di\[0\]
*CELL NULL
*C2_R1_C1 4.157e-01 1.518e-05 4.157e-01 
*LOADS
*RC U545:A2 6.416e-06
*END

*R_NET reg_dat_do\[7\] 1.040e+00
*DRIVER U606:X
*CELL SAEDRVT14_OR2_1
*C2_R1_C1 5.198e-01 1.385e-05 5.198e-01 
*LOADS
*RC reg_dat_do\[7\] 9.413e-06
*END

*R_NET reg_dat_do\[6\] 1.070e+00
*DRIVER U605:X
*CELL SAEDRVT14_OR2_1
*C2_R1_C1 5.348e-01 1.431e-05 5.348e-01 
*LOADS
*RC reg_dat_do\[6\] 9.872e-06
*END

*R_NET reg_dat_do\[5\] 1.203e+00
*DRIVER U604:X
*CELL SAEDRVT14_OR2_1
*C2_R1_C1 6.017e-01 1.655e-05 6.017e-01 
*LOADS
*RC reg_dat_do\[5\] 1.216e-05
*END

*R_NET reg_dat_do\[4\] 1.087e+00
*DRIVER U603:X
*CELL SAEDRVT14_OR2_1
*C2_R1_C1 5.437e-01 1.483e-05 5.437e-01 
*LOADS
*RC reg_dat_do\[4\] 1.032e-05
*END

*R_NET reg_dat_do\[3\] 9.197e-01
*DRIVER U602:X
*CELL SAEDRVT14_OR2_1
*C2_R1_C1 4.598e-01 1.190e-05 4.598e-01 
*LOADS
*RC reg_dat_do\[3\] 7.612e-06
*END

*R_NET reg_dat_do\[2\] 9.654e-01
*DRIVER U601:X
*CELL SAEDRVT14_OR2_1
*C2_R1_C1 4.827e-01 1.253e-05 4.827e-01 
*LOADS
*RC reg_dat_do\[2\] 8.211e-06
*END

*R_NET reg_dat_do\[1\] 1.140e+00
*DRIVER U600:X
*CELL SAEDRVT14_OR2_1
*C2_R1_C1 5.698e-01 1.548e-05 5.698e-01 
*LOADS
*RC reg_dat_do\[1\] 1.104e-05
*END

*R_NET reg_dat_do\[0\] 1.235e+00
*DRIVER U599:X
*CELL SAEDRVT14_OR2_1
*C2_R1_C1 6.174e-01 1.731e-05 6.174e-01 
*LOADS
*RC reg_dat_do\[0\] 1.290e-05
*END

*R_NET reg_dat_wait 2.140e+00
*DRIVER U432:X
*CELL SAEDRVT14_OA21_1
*C2_R1_C1 1.070e+00 4.764e-05 1.070e+00 
*LOADS
*RC reg_dat_wait 4.986e-05
*END

*R_NET send_bitcnt\[3\] 7.969e-01
*DRIVER send_bitcnt_reg_3_:Q
*CELL SAEDRVT14_FSDPQ_V2LP_1
*C2_R1_C1 3.985e-01 1.164e-05 3.985e-01 
*LOADS
*RC U407:A1 4.894e-06
*RC U541:A1 3.862e-06
*END

*R_NET send_bitcnt\[2\] 1.137e+00
*DRIVER send_bitcnt_reg_2_:Q
*CELL SAEDRVT14_FSDPQ_V2LP_1
*C2_R1_C1 5.687e-01 1.303e-05 5.687e-01 
*LOADS
*RC U407:A2 8.029e-06
*RC U538:A1 5.552e-06
*RC U539:A1 4.508e-06
*END

*R_NET send_bitcnt\[1\] 1.157e+00
*DRIVER send_bitcnt_reg_1_:Q
*CELL SAEDRVT14_FSDPQ_V2LP_1
*C2_R1_C1 5.783e-01 1.280e-05 5.783e-01 
*LOADS
*RC U407:A4 5.384e-06
*RC U533:A2 6.621e-06
*RC U534:A1 4.279e-06
*END

*R_NET send_bitcnt\[0\] 1.429e+00
*DRIVER send_bitcnt_reg_0_:Q
*CELL SAEDRVT14_FSDPQ_V2LP_1
*C2_R1_C1 7.145e-01 1.321e-05 7.145e-01 
*LOADS
*RC U407:A3 7.527e-06
*RC U532:A1 4.810e-06
*RC U533:A1 6.340e-06
*RC U534:A2 6.301e-06
*END

*R_NET send_dummy 1.156e+00
*DRIVER send_dummy_reg:Q
*CELL SAEDRVT14_FSDPQ_V2LP_1
*C2_R1_C1 5.782e-01 1.682e-05 5.782e-01 
*LOADS
*RC U410:A2 8.197e-06
*RC U432:A1 8.753e-06
*RC U609:D1 5.819e-06
*END

*R_NET recv_buf_valid 2.898e-01
*DRIVER recv_buf_valid_reg:Q
*CELL SAEDRVT14_FSDPQ_V2LP_1
*C2_R1_C1 1.449e-01 1.003e-05 1.449e-01 
*LOADS
*RC U613:A 2.000e-06
*END

*R_NET recv_buf_data\[7\] 2.624e-01
*DRIVER recv_buf_data_reg_7_:Q
*CELL SAEDRVT14_FSDPQ_V2LP_1
*C2_R1_C1 1.312e-01 7.644e-06 1.312e-01 
*LOADS
*RC U606:A1 1.700e-06
*END

*R_NET recv_buf_data\[6\] 2.617e-01
*DRIVER recv_buf_data_reg_6_:Q
*CELL SAEDRVT14_FSDPQ_V2LP_1
*C2_R1_C1 1.308e-01 7.631e-06 1.308e-01 
*LOADS
*RC U605:A1 1.696e-06
*END

*R_NET recv_buf_data\[5\] 2.721e-01
*DRIVER recv_buf_data_reg_5_:Q
*CELL SAEDRVT14_FSDPQ_V2LP_1
*C2_R1_C1 1.360e-01 7.807e-06 1.360e-01 
*LOADS
*RC U604:A1 1.762e-06
*END

*R_NET recv_buf_data\[4\] 3.798e-01
*DRIVER recv_buf_data_reg_4_:Q
*CELL SAEDRVT14_FSDPQ_V2LP_1
*C2_R1_C1 1.899e-01 1.016e-05 1.899e-01 
*LOADS
*RC U603:A1 2.657e-06
*END

*R_NET recv_buf_data\[3\] 2.671e-01
*DRIVER recv_buf_data_reg_3_:Q
*CELL SAEDRVT14_FSDPQ_V2LP_1
*C2_R1_C1 1.336e-01 7.729e-06 1.336e-01 
*LOADS
*RC U602:A1 1.731e-06
*END
