*SPEF "IEEE 1481-1999"
*DESIGN "spimemio"
*DATE "Mon Mar 24 11:28:17 2025"
*VENDOR "SYNOPSYS INC"
*PROGRAM "Synopsys Design Compiler (R) NXT cmos"
*VERSION "T-2022.03-SP4"
*DESIGN_FLOW "SYNTHESIS"
*DIVIDER /
*DELIMITER :
*BUS_DELIMITER []
*T_UNIT 1.0 NS
*C_UNIT 0.0010 PF
*R_UNIT 1000.0 KOHM
*L_UNIT 1.0 HENRY

*PORTS

clk I *L 0.000e+00 *S 0.000e+00 0.000e+00 
resetn I *L 0.000e+00 *S 0.000e+00 0.000e+00 
valid I *L 0.000e+00 *S 0.000e+00 0.000e+00 
ready O *L 2.000e-01 *S 1.693e-02 1.691e-02 
addr\[23\] I *L 0.000e+00 *S 0.000e+00 0.000e+00 
addr\[22\] I *L 0.000e+00 *S 0.000e+00 0.000e+00 
addr\[21\] I *L 0.000e+00 *S 0.000e+00 0.000e+00 
addr\[20\] I *L 0.000e+00 *S 0.000e+00 0.000e+00 
addr\[19\] I *L 0.000e+00 *S 0.000e+00 0.000e+00 
addr\[18\] I *L 0.000e+00 *S 0.000e+00 0.000e+00 
addr\[17\] I *L 0.000e+00 *S 0.000e+00 0.000e+00 
addr\[16\] I *L 0.000e+00 *S 0.000e+00 0.000e+00 
addr\[15\] I *L 0.000e+00 *S 0.000e+00 0.000e+00 
addr\[14\] I *L 0.000e+00 *S 0.000e+00 0.000e+00 
addr\[13\] I *L 0.000e+00 *S 0.000e+00 0.000e+00 
addr\[12\] I *L 0.000e+00 *S 0.000e+00 0.000e+00 
addr\[11\] I *L 0.000e+00 *S 0.000e+00 0.000e+00 
addr\[10\] I *L 0.000e+00 *S 0.000e+00 0.000e+00 
addr\[9\] I *L 0.000e+00 *S 0.000e+00 0.000e+00 
addr\[8\] I *L 0.000e+00 *S 0.000e+00 0.000e+00 
addr\[7\] I *L 0.000e+00 *S 0.000e+00 0.000e+00 
addr\[6\] I *L 0.000e+00 *S 0.000e+00 0.000e+00 
addr\[5\] I *L 0.000e+00 *S 0.000e+00 0.000e+00 
addr\[4\] I *L 0.000e+00 *S 0.000e+00 0.000e+00 
addr\[3\] I *L 0.000e+00 *S 0.000e+00 0.000e+00 
addr\[2\] I *L 0.000e+00 *S 0.000e+00 0.000e+00 
addr\[1\] I *L 0.000e+00 *S 0.000e+00 0.000e+00 
addr\[0\] I *L 0.000e+00 *S 0.000e+00 0.000e+00 
rdata\[31\] O *L 2.000e-01 *S 2.021e-03 2.470e-03 
rdata\[30\] O *L 2.000e-01 *S 4.414e-03 5.202e-03 
rdata\[29\] O *L 2.000e-01 *S 4.109e-03 4.899e-03 
rdata\[28\] O *L 2.000e-01 *S 3.218e-03 3.933e-03 
rdata\[27\] O *L 2.000e-01 *S 3.589e-03 4.383e-03 
rdata\[26\] O *L 2.000e-01 *S 5.918e-03 6.697e-03 
rdata\[25\] O *L 2.000e-01 *S 3.110e-03 3.801e-03 
rdata\[24\] O *L 2.000e-01 *S 6.070e-03 6.848e-03 
rdata\[23\] O *L 2.000e-01 *S 7.867e-03 8.634e-03 
rdata\[22\] O *L 2.000e-01 *S 1.908e-03 2.332e-03 
rdata\[21\] O *L 2.000e-01 *S 9.286e-02 1.517e-02 
rdata\[20\] O *L 2.000e-01 *S 1.058e-01 1.573e-02 
rdata\[19\] O *L 2.000e-01 *S 2.808e-03 3.431e-03 
rdata\[18\] O *L 2.000e-01 *S 3.041e-03 3.717e-03 
rdata\[17\] O *L 2.000e-01 *S 1.879e-01 1.930e-02 
rdata\[16\] O *L 2.000e-01 *S 4.920e-03 5.706e-03 
rdata\[15\] O *L 2.000e-01 *S 1.313e-01 1.684e-02 
rdata\[14\] O *L 2.000e-01 *S 3.844e-03 4.636e-03 
rdata\[13\] O *L 2.000e-01 *S 4.902e-03 5.688e-03 
rdata\[12\] O *L 2.000e-01 *S 4.470e-03 5.259e-03 
rdata\[11\] O *L 2.000e-01 *S 2.584e-02 1.225e-02 
rdata\[10\] O *L 2.000e-01 *S 3.399e-03 4.154e-03 
rdata\[9\] O *L 2.000e-01 *S 5.976e-03 6.755e-03 
rdata\[8\] O *L 2.000e-01 *S 5.129e-03 5.913e-03 
rdata\[7\] O *L 2.000e-01 *S 1.785e-01 1.889e-02 
rdata\[6\] O *L 2.000e-01 *S 2.498e-03 3.053e-03 
rdata\[5\] O *L 2.000e-01 *S 6.185e-03 6.963e-03 
rdata\[4\] O *L 2.000e-01 *S 3.702e-03 4.494e-03 
rdata\[3\] O *L 2.000e-01 *S 3.033e-03 3.707e-03 
rdata\[2\] O *L 2.000e-01 *S 2.800e-03 3.422e-03 
rdata\[1\] O *L 2.000e-01 *S 5.336e-03 6.118e-03 
rdata\[0\] O *L 2.000e-01 *S 9.374e-03 1.013e-02 
flash_csb O *L 2.000e-01 *S 1.619e-02 1.649e-02 
flash_clk O *L 2.000e-01 *S 1.602e-02 1.631e-02 
flash_io0_oeb O *L 2.000e-01 *S 3.324e-02 3.322e-02 
flash_io1_oeb O *L 2.000e-01 *S 3.307e-02 3.305e-02 
flash_io2_oeb O *L 2.000e-01 *S 3.314e-02 3.312e-02 
flash_io3_oeb O *L 2.000e-01 *S 3.353e-02 3.352e-02 
flash_io0_do O *L 2.000e-01 *S 1.827e-02 2.020e-02 
flash_io1_do O *L 2.000e-01 *S 1.833e-02 2.027e-02 
flash_io2_do O *L 2.000e-01 *S 1.885e-02 2.088e-02 
flash_io3_do O *L 2.000e-01 *S 1.853e-02 2.050e-02 
flash_io0_di I *L 0.000e+00 *S 0.000e+00 0.000e+00 
flash_io1_di I *L 0.000e+00 *S 0.000e+00 0.000e+00 
flash_io2_di I *L 0.000e+00 *S 0.000e+00 0.000e+00 
flash_io3_di I *L 0.000e+00 *S 0.000e+00 0.000e+00 
cfgreg_we\[3\] I *L 0.000e+00 *S 0.000e+00 0.000e+00 
cfgreg_we\[2\] I *L 0.000e+00 *S 0.000e+00 0.000e+00 
cfgreg_we\[1\] I *L 0.000e+00 *S 0.000e+00 0.000e+00 
cfgreg_we\[0\] I *L 0.000e+00 *S 0.000e+00 0.000e+00 
cfgreg_di\[31\] I *L 0.000e+00 *S 0.000e+00 0.000e+00 
cfgreg_di\[30\] I *L 0.000e+00 *S 0.000e+00 0.000e+00 
cfgreg_di\[29\] I *L 0.000e+00 *S 0.000e+00 0.000e+00 
cfgreg_di\[28\] I *L 0.000e+00 *S 0.000e+00 0.000e+00 
cfgreg_di\[27\] I *L 0.000e+00 *S 0.000e+00 0.000e+00 
cfgreg_di\[26\] I *L 0.000e+00 *S 0.000e+00 0.000e+00 
cfgreg_di\[25\] I *L 0.000e+00 *S 0.000e+00 0.000e+00 
cfgreg_di\[24\] I *L 0.000e+00 *S 0.000e+00 0.000e+00 
cfgreg_di\[23\] I *L 0.000e+00 *S 0.000e+00 0.000e+00 
cfgreg_di\[22\] I *L 0.000e+00 *S 0.000e+00 0.000e+00 
cfgreg_di\[21\] I *L 0.000e+00 *S 0.000e+00 0.000e+00 
cfgreg_di\[20\] I *L 0.000e+00 *S 0.000e+00 0.000e+00 
cfgreg_di\[19\] I *L 0.000e+00 *S 0.000e+00 0.000e+00 
cfgreg_di\[18\] I *L 0.000e+00 *S 0.000e+00 0.000e+00 
cfgreg_di\[17\] I *L 0.000e+00 *S 0.000e+00 0.000e+00 
cfgreg_di\[16\] I *L 0.000e+00 *S 0.000e+00 0.000e+00 
cfgreg_di\[15\] I *L 0.000e+00 *S 0.000e+00 0.000e+00 
cfgreg_di\[14\] I *L 0.000e+00 *S 0.000e+00 0.000e+00 
cfgreg_di\[13\] I *L 0.000e+00 *S 0.000e+00 0.000e+00 
cfgreg_di\[12\] I *L 0.000e+00 *S 0.000e+00 0.000e+00 
cfgreg_di\[11\] I *L 0.000e+00 *S 0.000e+00 0.000e+00 
cfgreg_di\[10\] I *L 0.000e+00 *S 0.000e+00 0.000e+00 
cfgreg_di\[9\] I *L 0.000e+00 *S 0.000e+00 0.000e+00 
cfgreg_di\[8\] I *L 0.000e+00 *S 0.000e+00 0.000e+00 
cfgreg_di\[7\] I *L 0.000e+00 *S 0.000e+00 0.000e+00 
cfgreg_di\[6\] I *L 0.000e+00 *S 0.000e+00 0.000e+00 
cfgreg_di\[5\] I *L 0.000e+00 *S 0.000e+00 0.000e+00 
cfgreg_di\[4\] I *L 0.000e+00 *S 0.000e+00 0.000e+00 
cfgreg_di\[3\] I *L 0.000e+00 *S 0.000e+00 0.000e+00 
cfgreg_di\[2\] I *L 0.000e+00 *S 0.000e+00 0.000e+00 
cfgreg_di\[1\] I *L 0.000e+00 *S 0.000e+00 0.000e+00 
cfgreg_di\[0\] I *L 0.000e+00 *S 0.000e+00 0.000e+00 
cfgreg_do\[31\] O *L 2.000e-01 *S 6.015e-01 4.776e-02 
cfgreg_do\[30\] O *L 2.000e-01 *S 0.000e+00 0.000e+00 
cfgreg_do\[29\] O *L 2.000e-01 *S 0.000e+00 0.000e+00 
cfgreg_do\[28\] O *L 2.000e-01 *S 0.000e+00 0.000e+00 
cfgreg_do\[27\] O *L 2.000e-01 *S 0.000e+00 0.000e+00 
cfgreg_do\[26\] O *L 2.000e-01 *S 0.000e+00 0.000e+00 
cfgreg_do\[25\] O *L 2.000e-01 *S 0.000e+00 0.000e+00 
cfgreg_do\[24\] O *L 2.000e-01 *S 0.000e+00 0.000e+00 
cfgreg_do\[23\] O *L 2.000e-01 *S 0.000e+00 0.000e+00 
cfgreg_do\[22\] O *L 2.000e-01 *S 2.622e-01 2.253e-02 
cfgreg_do\[21\] O *L 2.000e-01 *S 7.869e-03 8.637e-03 
cfgreg_do\[20\] O *L 2.000e-01 *S 4.372e-02 1.303e-02 
cfgreg_do\[19\] O *L 2.000e-01 *S 8.455e-03 9.219e-03 
cfgreg_do\[18\] O *L 2.000e-01 *S 9.407e-03 1.017e-02 
cfgreg_do\[17\] O *L 2.000e-01 *S 8.174e-03 8.939e-03 
cfgreg_do\[16\] O *L 2.000e-01 *S 1.017e-02 1.092e-02 
cfgreg_do\[15\] O *L 2.000e-01 *S 0.000e+00 0.000e+00 
cfgreg_do\[14\] O *L 2.000e-01 *S 0.000e+00 0.000e+00 
cfgreg_do\[13\] O *L 2.000e-01 *S 0.000e+00 0.000e+00 
cfgreg_do\[12\] O *L 2.000e-01 *S 0.000e+00 0.000e+00 
cfgreg_do\[11\] O *L 2.000e-01 *S 2.208e-02 2.218e-02 
cfgreg_do\[10\] O *L 2.000e-01 *S 2.182e-02 2.192e-02 
cfgreg_do\[9\] O *L 2.000e-01 *S 2.101e-02 2.111e-02 
cfgreg_do\[8\] O *L 2.000e-01 *S 2.180e-02 2.191e-02 
cfgreg_do\[7\] O *L 2.000e-01 *S 0.000e+00 0.000e+00 
cfgreg_do\[6\] O *L 2.000e-01 *S 0.000e+00 0.000e+00 
cfgreg_do\[5\] O *L 2.000e-01 *S 1.619e-02 1.649e-02 
cfgreg_do\[4\] O *L 2.000e-01 *S 1.602e-02 1.631e-02 
cfgreg_do\[3\] O *L 2.000e-01 *S 0.000e+00 0.000e+00 
cfgreg_do\[2\] O *L 2.000e-01 *S 0.000e+00 0.000e+00 
cfgreg_do\[1\] O *L 2.000e-01 *S 0.000e+00 0.000e+00 
cfgreg_do\[0\] O *L 2.000e-01 *S 0.000e+00 0.000e+00 

*R_NET n792 1.585e+01
*DRIVER clk_UPF_LS:X
*CELL SAEDRVT14_LVLUBUF_IY2V1_1
*C2_R1_C1 7.924e+00 5.481e-05 7.924e+00 
*LOADS
*RC xfer/clk_gate_count_reg/latch:CK 7.845e-07
*RC xfer/clk_gate_ibuffer_reg/latch:CK 7.845e-07
*RC xfer/clk_gate_obuffer_reg/latch:CK 7.845e-07
*RC xfer/clk_gate_dummy_count_reg/latch:CK 7.845e-07
*RC xfer/clk_gate_xfer_rd_reg/latch:CK 7.845e-07
*RC clk_gate_din_tag_reg/latch:CK 7.845e-07
*RC clk_gate_rd_inc_reg/latch:CK 7.845e-07
*RC clk_gate_buffer_reg_1/latch:CK 7.845e-07
*RC clk_gate_buffer_reg_0/latch:CK 7.845e-07
*RC clk_gate_buffer_reg/latch:CK 7.845e-07
*RC clk_gate_rd_addr_reg/latch:CK 7.845e-07
*RC clk_gate_config_oe_reg/latch:CK 7.845e-07
*RC clk_gate_config_csb_reg/latch:CK 7.845e-07
*RC clk_gate_config_qspi_reg/latch:CK 7.845e-07
*RC xfer_io2_90_reg:CK 6.847e-07
*RC config_en_reg:CK 5.138e-07
*RC xfer_io0_90_reg:CK 6.847e-07
*RC xfer_io1_90_reg:CK 6.847e-07
*RC xfer_io3_90_reg:CK 6.847e-07
*RC state_reg_0_:CK 5.138e-07
*RC state_reg_1_:CK 5.138e-07
*RC state_reg_2_:CK 5.138e-07
*RC state_reg_3_:CK 5.138e-07
*RC din_ddr_reg:CK 5.138e-07
*RC din_qspi_reg:CK 5.138e-07
*RC xfer_resetn_reg:CK 5.138e-07
*RC din_rd_reg:CK 5.138e-07
*RC rd_valid_reg:CK 5.138e-07
*RC din_valid_reg:CK 5.138e-07
*RC softreset_reg:CK 5.138e-07
*RC xfer/flash_clk_reg:CK 5.138e-07
*RC xfer/fetch_reg:CK 5.138e-07
*RC xfer/xfer_tag_q_reg_1_:CK 5.138e-07
*RC xfer/xfer_tag_q_reg_0_:CK 5.138e-07
*RC xfer/xfer_ddr_q_reg:CK 5.138e-07
*RC xfer/last_fetch_reg:CK 5.138e-07
*RC xfer/xfer_tag_q_reg_2_:CK 5.138e-07
*END

*R_NET n793 1.433e+01
*DRIVER resetn_UPF_LS:X
*CELL SAEDRVT14_LVLUBUF_IY2V1_1
*C2_R1_C1 7.166e+00 9.606e-05 7.166e+00 
*LOADS
*RC U911:B 2.091e-04
*RC U912:B 2.076e-04
*RC U908:B 1.211e-04
*RC U691:A1 3.846e-04
*RC U692:A1 1.089e-04
*RC U693:A1 1.929e-04
*RC U694:A1 3.846e-04
*RC U695:A1 1.457e-04
*RC U696:A1 1.010e-04
*RC U697:A1 1.583e-04
*RC U698:A1 1.222e-04
*RC U699:A1 3.587e-04
*RC U700:A1 5.533e-05
*RC U704:A1 1.348e-04
*RC U705:A1 9.170e-05
*RC U706:A1 1.528e-04
*RC U910:B 1.407e-04
*RC U707:A1 3.893e-04
*RC U708:A1 3.323e-04
*RC U709:A1 4.429e-04
*RC U575:A 1.501e-04
*RC xfer/U42:A2 3.583e-04
*END

*R_NET n794 2.193e+00
*DRIVER valid_UPF_LS:X
*CELL SAEDRVT14_LVLUBUF_IY2V1_1
*C2_R1_C1 1.096e+00 4.785e-05 1.096e+00 
*LOADS
*RC U582:A1 4.553e-05
*RC U746:A 3.896e-05
*END

*R_NET ready 2.427e+00
*DRIVER U712:X
*CELL SAEDRVT14_INV_0P75
*C2_R1_C1 1.214e+00 5.125e-05 1.214e+00 
*LOADS
*RC U749:A1 1.192e-05
*RC ready 4.700e-05
*END

*R_NET n\[795\] 1.496e+00
*DRIVER addr_23__UPF_LS:X
*CELL SAEDRVT14_LVLUBUF_IY2V1_1
*C2_R1_C1 7.478e-01 2.345e-05 7.478e-01 
*LOADS
*RC U620:A 1.387e-05
*RC U668:B2 1.224e-05
*RC U669:B1 1.374e-05
*END

*R_NET n\[796\] 1.731e+00
*DRIVER addr_22__UPF_LS:X
*CELL SAEDRVT14_LVLUBUF_IY2V1_1
*C2_R1_C1 8.654e-01 3.111e-05 8.654e-01 
*LOADS
*RC U628:A 2.030e-05
*RC U672:A2 1.510e-05
*RC U673:A2 1.647e-05
*END

*R_NET n\[797\] 1.150e+00
*DRIVER addr_21__UPF_LS:X
*CELL SAEDRVT14_LVLUBUF_IY2V1_1
*C2_R1_C1 5.748e-01 1.874e-05 5.748e-01 
*LOADS
*RC U596:A 9.164e-06
*RC U664:A2 4.967e-06
*RC U665:A2 6.734e-06
*END

*R_NET n\[798\] 1.572e+00
*DRIVER addr_20__UPF_LS:X
*CELL SAEDRVT14_LVLUBUF_IY2V1_1
*C2_R1_C1 7.860e-01 2.635e-05 7.860e-01 
*LOADS
*RC U600:A 1.557e-05
*RC U648:B2 1.436e-05
*RC U649:B1 1.373e-05
*END

*R_NET n\[799\] 1.331e+00
*DRIVER addr_19__UPF_LS:X
*CELL SAEDRVT14_LVLUBUF_IY2V1_1
*C2_R1_C1 6.653e-01 2.126e-05 6.653e-01 
*LOADS
*RC U603:A 9.063e-06
*RC U652:A2 9.956e-06
*RC U653:A2 1.345e-05
*END

*R_NET n\[800\] 1.156e+00
*DRIVER addr_18__UPF_LS:X
*CELL SAEDRVT14_LVLUBUF_IY2V1_1
*C2_R1_C1 5.782e-01 3.143e-05 5.782e-01 
*LOADS
*RC U604:A 1.714e-05
*END

*R_NET n\[801\] 1.121e+00
*DRIVER addr_17__UPF_LS:X
*CELL SAEDRVT14_LVLUBUF_IY2V1_1
*C2_R1_C1 5.607e-01 1.576e-05 5.607e-01 
*LOADS
*RC U629:A 7.665e-06
*RC U656:B2 6.698e-06
*RC U657:B1 6.967e-06
*END

*R_NET n\[802\] 2.719e+00
*DRIVER addr_16__UPF_LS:X
*CELL SAEDRVT14_LVLUBUF_IY2V1_1
*C2_R1_C1 1.359e+00 4.136e-05 1.359e+00 
*LOADS
*RC U625:A 2.884e-05
*RC U636:B2 4.209e-05
*RC U637:B1 4.342e-05
*RC U877:A1 3.629e-05
*END

*R_NET n\[803\] 1.019e+00
*DRIVER addr_15__UPF_LS:X
*CELL SAEDRVT14_LVLUBUF_IY2V1_1
*C2_R1_C1 5.097e-01 1.540e-05 5.097e-01 
*LOADS
*RC U607:A 6.936e-06
*RC U648:A2 5.364e-06
*RC U649:A2 5.111e-06
*END

*R_NET n\[804\] 1.314e+00
*DRIVER addr_14__UPF_LS:X
*CELL SAEDRVT14_LVLUBUF_IY2V1_1
*C2_R1_C1 6.572e-01 1.863e-05 6.572e-01 
*LOADS
*RC U621:A 8.896e-06
*RC U664:B2 9.217e-06
*RC U665:B1 8.948e-06
*END

*R_NET n\[805\] 4.095e+00
*DRIVER addr_13__UPF_LS:X
*CELL SAEDRVT14_LVLUBUF_IY2V1_1
*C2_R1_C1 2.048e+00 5.519e-05 2.048e+00 
*LOADS
*RC U583:A1 7.370e-05
*RC U640:B2 7.110e-05
*RC U641:B1 7.089e-05
*RC U690:D0 7.858e-05
*RC U844:A1 7.458e-05
*END

*R_NET n\[806\] 1.545e+00
*DRIVER addr_12__UPF_LS:X
*CELL SAEDRVT14_LVLUBUF_IY2V1_1
*C2_R1_C1 7.726e-01 2.796e-05 7.726e-01 
*LOADS
*RC U591:A 1.110e-05
*RC U644:A2 1.547e-05
*RC U645:A2 1.951e-05
*END

*R_NET n\[807\] 1.720e+00
*DRIVER addr_11__UPF_LS:X
*CELL SAEDRVT14_LVLUBUF_IY2V1_1
*C2_R1_C1 8.602e-01 2.989e-05 8.602e-01 
*LOADS
*RC U616:A 2.045e-05
*RC U672:B2 2.077e-05
*RC U673:B1 2.150e-05
*END

*R_NET n\[808\] 1.538e+00
*DRIVER addr_10__UPF_LS:X
*CELL SAEDRVT14_LVLUBUF_IY2V1_1
*C2_R1_C1 7.689e-01 2.661e-05 7.689e-01 
*LOADS
*RC U611:A 8.815e-06
*RC U676:A2 1.684e-05
*RC U677:A2 1.763e-05
*END

*R_NET n\[809\] 3.162e+00
*DRIVER addr_9__UPF_LS:X
*CELL SAEDRVT14_LVLUBUF_IY2V1_1
*C2_R1_C1 1.581e+00 4.484e-05 1.581e+00 
*LOADS
*RC U617:A 1.682e-05
*RC U656:A2 3.272e-05
*RC U657:A2 3.552e-05
*RC U871:A1 4.930e-05
*END

*R_NET n\[810\] 3.536e+00
*DRIVER addr_8__UPF_LS:X
*CELL SAEDRVT14_LVLUBUF_IY2V1_1
*C2_R1_C1 1.768e+00 5.539e-05 1.768e+00 
*LOADS
*RC U595:A 3.517e-05
*RC U676:B2 5.475e-05
*RC U677:B1 5.579e-05
*RC U877:B1 6.690e-05
*END

*R_NET n\[811\] 1.737e+00
*DRIVER addr_7__UPF_LS:X
*CELL SAEDRVT14_LVLUBUF_IY2V1_1
*C2_R1_C1 8.686e-01 3.211e-05 8.686e-01 
*LOADS
*RC U608:A 2.212e-05
*RC U644:B2 2.062e-05
*RC U645:B1 2.439e-05
*END

*R_NET n\[812\] 1.738e+00
*DRIVER addr_6__UPF_LS:X
*CELL SAEDRVT14_LVLUBUF_IY2V1_1
*C2_R1_C1 8.688e-01 3.100e-05 8.688e-01 
*LOADS
*RC U624:A 2.060e-05
*RC U668:A2 1.838e-05
*RC U669:A2 1.981e-05
*END

*R_NET n\[813\] 1.596e+00
*DRIVER addr_5__UPF_LS:X
*CELL SAEDRVT14_LVLUBUF_IY2V1_1
*C2_R1_C1 7.980e-01 2.465e-05 7.980e-01 
*LOADS
*RC U599:A 1.098e-05
*RC U652:B2 1.504e-05
*RC U653:B1 1.433e-05
*END

*R_NET n\[814\] 1.717e+00
*DRIVER addr_4__UPF_LS:X
*CELL SAEDRVT14_LVLUBUF_IY2V1_1
*C2_R1_C1 8.583e-01 2.856e-05 8.583e-01 
*LOADS
*RC U592:A 1.835e-05
*RC U640:A2 1.970e-05
*RC U641:A2 1.984e-05
*END

*R_NET n\[815\] 3.017e+00
*DRIVER addr_3__UPF_LS:X
*CELL SAEDRVT14_LVLUBUF_IY2V1_1
*C2_R1_C1 1.508e+00 4.846e-05 1.508e+00 
*LOADS
*RC U612:A 5.438e-05
*RC U636:A2 4.208e-05
*RC U637:A2 4.258e-05
*RC U858:A1 4.862e-05
*END

*R_NET n\[816\] 1.720e+00
*DRIVER addr_2__UPF_LS:X
*CELL SAEDRVT14_LVLUBUF_IY2V1_1
*C2_R1_C1 8.602e-01 3.988e-05 8.602e-01 
*LOADS
*RC U584:A 2.924e-05
*END

*R_NET n\[817\] 2.153e+00
*DRIVER addr_1__UPF_LS:X
*CELL SAEDRVT14_LVLUBUF_IY2V1_1
*C2_R1_C1 1.076e+00 3.127e-05 1.076e+00 
*LOADS
*RC U588:B2 1.757e-05
*RC U589:B1 1.911e-05
*RC U774:A 1.511e-05
*RC U873:A2 2.908e-05
*END

*R_NET n\[818\] 3.536e+00
*DRIVER addr_0__UPF_LS:X
*CELL SAEDRVT14_LVLUBUF_IY2V1_1
*C2_R1_C1 1.768e+00 5.437e-05 1.768e+00 
*LOADS
*RC U588:A2 6.941e-05
*RC U589:A2 7.252e-05
*RC U771:A 6.397e-05
*RC U881:A1 6.079e-05
*END

*R_NET rdata\[31\] 4.416e-01
*DRIVER rdata_reg_31_:Q
*CELL SAEDRVT14_FSDPQ_V2LP_1
*C2_R1_C1 2.208e-01 8.777e-06 2.208e-01 
*LOADS
*RC rdata\[31\] 2.462e-06
*END

*R_NET rdata\[30\] 1.037e+00
*DRIVER rdata_reg_30_:Q
*CELL SAEDRVT14_FSDPQ_V2LP_1
*C2_R1_C1 5.183e-01 1.867e-05 5.183e-01 
*LOADS
*RC rdata\[30\] 8.942e-06
*END

*R_NET rdata\[29\] 9.438e-01
*DRIVER rdata_reg_29_:Q
*CELL SAEDRVT14_FSDPQ_V2LP_1
*C2_R1_C1 4.719e-01 1.711e-05 4.719e-01 
*LOADS
*RC rdata\[29\] 7.665e-06
*END

*R_NET rdata\[28\] 7.031e-01
*DRIVER rdata_reg_28_:Q
*CELL SAEDRVT14_FSDPQ_V2LP_1
*C2_R1_C1 3.516e-01 1.347e-05 3.516e-01 
*LOADS
*RC rdata\[28\] 4.954e-06
*END

*R_NET rdata\[27\] 7.858e-01
*DRIVER rdata_reg_27_:Q
*CELL SAEDRVT14_FSDPQ_V2LP_1
*C2_R1_C1 3.929e-01 1.446e-05 3.929e-01 
*LOADS
*RC rdata\[27\] 5.715e-06
*END

*R_NET rdata\[26\] 1.495e+00
*DRIVER rdata_reg_26_:Q
*CELL SAEDRVT14_FSDPQ_V2LP_1
*C2_R1_C1 7.473e-01 2.570e-05 7.473e-01 
*LOADS
*RC rdata\[26\] 1.623e-05
*END

*R_NET rdata\[25\] 6.796e-01
*DRIVER rdata_reg_25_:Q
*CELL SAEDRVT14_FSDPQ_V2LP_1
*C2_R1_C1 3.398e-01 1.279e-05 3.398e-01 
*LOADS
*RC rdata\[25\] 4.602e-06
*END

*R_NET rdata\[24\] 1.541e+00
*DRIVER rdata_reg_24_:Q
*CELL SAEDRVT14_FSDPQ_V2LP_1
*C2_R1_C1 7.704e-01 2.619e-05 7.704e-01 
*LOADS
*RC rdata\[24\] 1.695e-05
*END

*R_NET rdata\[23\] 2.088e+00
*DRIVER rdata_reg_23_:Q
*CELL SAEDRVT14_FSDPQ_V2LP_1
*C2_R1_C1 1.044e+00 5.532e-05 1.044e+00 
*LOADS
*RC rdata\[23\] 4.588e-05
*END

*R_NET rdata\[22\] 4.169e-01
*DRIVER rdata_reg_22_:Q
*CELL SAEDRVT14_FSDPQ_V2LP_1
*C2_R1_C1 2.085e-01 1.113e-05 2.085e-01 
*LOADS
*RC rdata\[22\] 3.029e-06
*END

*R_NET rdata\[21\] 3.408e+00
*DRIVER rdata_reg_21_:Q
*CELL SAEDRVT14_FSDPQ_V2LP_1
*C2_R1_C1 1.704e+00 5.671e-05 1.704e+00 
*LOADS
*RC rdata\[21\] 7.197e-05
*END

*R_NET rdata\[20\] 3.473e+00
*DRIVER rdata_reg_20_:Q
*CELL SAEDRVT14_FSDPQ_V2LP_1
*C2_R1_C1 1.736e+00 6.027e-05 1.736e+00 
*LOADS
*RC rdata\[20\] 7.779e-05
*END

*R_NET rdata\[19\] 6.135e-01
*DRIVER rdata_reg_19_:Q
*CELL SAEDRVT14_FSDPQ_V2LP_1
*C2_R1_C1 3.067e-01 1.607e-05 3.067e-01 
*LOADS
*RC rdata\[19\] 5.429e-06
*END

*R_NET rdata\[18\] 6.645e-01
*DRIVER rdata_reg_18_:Q
*CELL SAEDRVT14_FSDPQ_V2LP_1
*C2_R1_C1 3.322e-01 1.776e-05 3.322e-01 
*LOADS
*RC rdata\[18\] 6.303e-06
*END

*R_NET rdata\[17\] 3.885e+00
*DRIVER rdata_reg_17_:Q
*CELL SAEDRVT14_FSDPQ_V2LP_1
*C2_R1_C1 1.943e+00 6.336e-05 1.943e+00 
*LOADS
*RC rdata\[17\] 9.051e-05
*END

*R_NET rdata\[16\] 1.191e+00
*DRIVER rdata_reg_16_:Q
*CELL SAEDRVT14_FSDPQ_V2LP_1
*C2_R1_C1 5.955e-01 3.073e-05 5.955e-01 
*LOADS
*RC rdata\[16\] 1.630e-05
*END

*R_NET rdata\[15\] 3.601e+00
*DRIVER rdata_reg_15_:Q
*CELL SAEDRVT14_FSDPQ_V2LP_1
*C2_R1_C1 1.801e+00 5.938e-05 1.801e+00 
*LOADS
*RC rdata\[15\] 7.919e-05
*END

*R_NET rdata\[14\] 8.632e-01
*DRIVER rdata_reg_14_:Q
*CELL SAEDRVT14_FSDPQ_V2LP_1
*C2_R1_C1 4.316e-01 2.269e-05 4.316e-01 
*LOADS
*RC rdata\[14\] 9.553e-06
*END

*R_NET rdata\[13\] 1.185e+00
*DRIVER rdata_reg_13_:Q
*CELL SAEDRVT14_FSDPQ_V2LP_1
*C2_R1_C1 5.927e-01 3.076e-05 5.927e-01 
*LOADS
*RC rdata\[13\] 1.626e-05
*END

*R_NET rdata\[12\] 1.054e+00
*DRIVER rdata_reg_12_:Q
*CELL SAEDRVT14_FSDPQ_V2LP_1
*C2_R1_C1 5.270e-01 2.750e-05 5.270e-01 
*LOADS
*RC rdata\[12\] 1.333e-05
*END

*R_NET rdata\[11\] 3.071e+00
*DRIVER rdata_reg_11_:Q
*CELL SAEDRVT14_FSDPQ_V2LP_1
*C2_R1_C1 1.535e+00 5.998e-05 1.535e+00 
*LOADS
*RC rdata\[11\] 6.938e-05
*END

*R_NET rdata\[10\] 7.427e-01
*DRIVER rdata_reg_10_:Q
*CELL SAEDRVT14_FSDPQ_V2LP_1
*C2_R1_C1 3.713e-01 1.950e-05 3.713e-01 
*LOADS
*RC rdata\[10\] 7.426e-06
*END

*R_NET rdata\[9\] 1.512e+00
*DRIVER rdata_reg_9_:Q
*CELL SAEDRVT14_FSDPQ_V2LP_1
*C2_R1_C1 7.561e-01 4.134e-05 7.561e-01 
*LOADS
*RC rdata\[9\] 2.635e-05
*END

*R_NET rdata\[8\] 1.254e+00
*DRIVER rdata_reg_8_:Q
*CELL SAEDRVT14_FSDPQ_V2LP_1
*C2_R1_C1 6.272e-01 3.231e-05 6.272e-01 
*LOADS
*RC rdata\[8\] 1.782e-05
*END

*R_NET rdata\[7\] 3.838e+00
*DRIVER rdata_reg_7_:Q
*CELL SAEDRVT14_FSDPQ_V2LP_1
*C2_R1_C1 1.919e+00 6.264e-05 1.919e+00 
*LOADS
*RC rdata\[7\] 8.848e-05
*END

*R_NET rdata\[6\] 5.458e-01
*DRIVER rdata_reg_6_:Q
*CELL SAEDRVT14_FSDPQ_V2LP_1
*C2_R1_C1 2.729e-01 1.451e-05 2.729e-01 
*LOADS
*RC rdata\[6\] 4.574e-06
*END

*R_NET rdata\[5\] 1.576e+00
*DRIVER rdata_reg_5_:Q
*CELL SAEDRVT14_FSDPQ_V2LP_1
*C2_R1_C1 7.880e-01 4.289e-05 7.880e-01 
*LOADS
*RC rdata\[5\] 2.825e-05
*END

*R_NET rdata\[4\] 8.199e-01
*DRIVER rdata_reg_4_:Q
*CELL SAEDRVT14_FSDPQ_V2LP_1
*C2_R1_C1 4.099e-01 2.271e-05 4.099e-01 
*LOADS
*RC rdata\[4\] 9.234e-06
*END

*R_NET rdata\[3\] 6.627e-01
*DRIVER rdata_reg_3_:Q
*CELL SAEDRVT14_FSDPQ_V2LP_1
*C2_R1_C1 3.313e-01 1.778e-05 3.313e-01 
*LOADS
*RC rdata\[3\] 6.296e-06
*END

*R_NET rdata\[2\] 6.118e-01
*DRIVER rdata_reg_2_:Q
*CELL SAEDRVT14_FSDPQ_V2LP_1
*C2_R1_C1 3.059e-01 1.614e-05 3.059e-01 
*LOADS
*RC rdata\[2\] 5.442e-06
*END

*R_NET rdata\[1\] 1.317e+00
*DRIVER rdata_reg_1_:Q
*CELL SAEDRVT14_FSDPQ_V2LP_1
*C2_R1_C1 6.587e-01 3.393e-05 6.587e-01 
*LOADS
*RC rdata\[1\] 1.942e-05
*END

*R_NET rdata\[0\] 2.547e+00
*DRIVER rdata_reg_0_:Q
*CELL SAEDRVT14_FSDPQ_V2LP_1
*C2_R1_C1 1.273e+00 4.555e-05 1.273e+00 
*LOADS
*RC rdata\[0\] 4.474e-05
*END

*R_NET flash_io0_oeb 2.753e+00
*DRIVER U737:X
*CELL SAEDRVT14_MUXI2_U_0P5
*C2_R1_C1 1.377e+00 4.185e-05 1.377e+00 
*LOADS
*RC U738:A 4.945e-06
*RC flash_io0_oeb 4.379e-05
*END

*R_NET flash_io1_oeb 2.735e+00
*DRIVER U735:X
*CELL SAEDRVT14_MUXI2_U_0P5
*C2_R1_C1 1.368e+00 4.158e-05 1.368e+00 
*LOADS
*RC U736:A 6.605e-06
*RC flash_io1_oeb 4.345e-05
*END

*R_NET flash_io2_oeb 2.743e+00
*DRIVER U733:X
*CELL SAEDRVT14_MUXI2_U_0P5
*C2_R1_C1 1.371e+00 4.164e-05 1.371e+00 
*LOADS
*RC U734:A 5.231e-06
*RC flash_io2_oeb 4.312e-05
*END

*R_NET flash_io3_oeb 2.785e+00
*DRIVER U731:X
*CELL SAEDRVT14_MUXI2_U_0P5
*C2_R1_C1 1.392e+00 4.237e-05 1.392e+00 
*LOADS
*RC U732:A 5.170e-06
*RC flash_io3_oeb 4.456e-05
*END

*R_NET flash_io0_do 2.181e+00
*DRIVER U730:X
*CELL SAEDRVT14_OAI21_0P5
*C2_R1_C1 1.091e+00 3.880e-05 1.091e+00 
*LOADS
*RC flash_io0_do 3.338e-05
*END

*R_NET flash_io1_do 2.191e+00
*DRIVER U727:X
*CELL SAEDRVT14_OAI21_0P5
*C2_R1_C1 1.096e+00 3.892e-05 1.096e+00 
*LOADS
*RC flash_io1_do 3.362e-05
*END

*R_NET flash_io2_do 2.278e+00
*DRIVER U724:X
*CELL SAEDRVT14_OAI21_0P5
*C2_R1_C1 1.139e+00 4.117e-05 1.139e+00 
*LOADS
*RC flash_io2_do 3.675e-05
*END

*R_NET flash_io3_do 2.224e+00
*DRIVER U721:X
*CELL SAEDRVT14_OAI21_0P5
*C2_R1_C1 1.112e+00 3.952e-05 1.112e+00 
*LOADS
*RC flash_io3_do 3.456e-05
*END

*R_NET n819 3.154e+00
*DRIVER cfgreg_we_3__UPF_LS:X
*CELL SAEDRVT14_LVLUBUF_IY2V1_1
*C2_R1_C1 1.577e+00 5.991e-05 1.577e+00 
*LOADS
*RC U909:A 7.376e-05
*RC U702:A1 7.284e-05
*END

*R_NET n820 1.215e+00
*DRIVER cfgreg_we_2__UPF_LS:X
*CELL SAEDRVT14_LVLUBUF_IY2V1_1
*C2_R1_C1 6.077e-01 2.521e-05 6.077e-01 
*LOADS
*RC U908:A 1.474e-05
*END

*R_NET n821 1.332e+00
*DRIVER cfgreg_we_1__UPF_LS:X
*CELL SAEDRVT14_LVLUBUF_IY2V1_1
*C2_R1_C1 6.658e-01 2.531e-05 6.658e-01 
*LOADS
*RC U911:A 1.544e-05
*RC U701:A1 1.400e-05
*END

*R_NET n822 1.642e+00
*DRIVER cfgreg_we_0__UPF_LS:X
*CELL SAEDRVT14_LVLUBUF_IY2V1_1
*C2_R1_C1 8.211e-01 3.108e-05 8.211e-01 
*LOADS
*RC U912:A 2.259e-05
*RC U701:A2 2.169e-05
*END

*R_NET cfgreg_di_31 5.734e-01
*DRIVER cfgreg_di_31__UPF_LS:X
*CELL SAEDRVT14_LVLUBUF_IY2V1_1
*C2_R1_C1 2.867e-01 1.217e-05 2.867e-01 
*LOADS
*RC U702:A2 5.047e-06
*END

*R_NET n823 1.339e+00
*DRIVER cfgreg_di_22__UPF_LS:X
*CELL SAEDRVT14_LVLUBUF_IY2V1_1
*C2_R1_C1 6.697e-01 2.888e-05 6.697e-01 
*LOADS
*RC U708:A2 1.906e-05
*END

*R_NET n824 1.894e+00
*DRIVER cfgreg_di_21__UPF_LS:X
*CELL SAEDRVT14_LVLUBUF_IY2V1_1
*C2_R1_C1 9.472e-01 3.514e-05 9.472e-01 
*LOADS
*RC U709:A2 2.969e-05
*END

*R_NET n825 6.644e-01
*DRIVER cfgreg_di_20__UPF_LS:X
*CELL SAEDRVT14_LVLUBUF_IY2V1_1
*C2_R1_C1 3.322e-01 1.380e-05 3.322e-01 
*LOADS
*RC U707:A2 6.001e-06
*END

*R_NET n826 1.068e+00
*DRIVER cfgreg_di_19__UPF_LS:X
*CELL SAEDRVT14_LVLUBUF_IY2V1_1
*C2_R1_C1 5.338e-01 2.300e-05 5.338e-01 
*LOADS
*RC U910:A 1.231e-05
*END

*R_NET n827 1.387e+00
*DRIVER cfgreg_di_18__UPF_LS:X
*CELL SAEDRVT14_LVLUBUF_IY2V1_1
*C2_R1_C1 6.933e-01 2.661e-05 6.933e-01 
*LOADS
*RC U706:A2 1.798e-05
*END

*R_NET n828 1.170e+00
*DRIVER cfgreg_di_17__UPF_LS:X
*CELL SAEDRVT14_LVLUBUF_IY2V1_1
*C2_R1_C1 5.850e-01 2.776e-05 5.850e-01 
*LOADS
*RC U705:A2 1.675e-05
*END

*R_NET n829 1.034e+00
*DRIVER cfgreg_di_16__UPF_LS:X
*CELL SAEDRVT14_LVLUBUF_IY2V1_1
*C2_R1_C1 5.169e-01 2.128e-05 5.169e-01 
*LOADS
*RC U704:A2 1.188e-05
*END

*R_NET cfgreg_di_11 7.570e-01
*DRIVER cfgreg_di_11__UPF_LS:X
*CELL SAEDRVT14_LVLUBUF_IY2V1_1
*C2_R1_C1 3.785e-01 1.445e-05 3.785e-01 
*LOADS
*RC U698:A2 6.731e-06
*END

*R_NET cfgreg_di_10 1.602e+00
*DRIVER cfgreg_di_10__UPF_LS:X
*CELL SAEDRVT14_LVLUBUF_IY2V1_1
*C2_R1_C1 8.011e-01 3.442e-05 8.011e-01 
*LOADS
*RC U697:A2 2.573e-05
*END

*R_NET cfgreg_di_9 1.850e+00
*DRIVER cfgreg_di_9__UPF_LS:X
*CELL SAEDRVT14_LVLUBUF_IY2V1_1
*C2_R1_C1 9.250e-01 3.940e-05 9.250e-01 
*LOADS
*RC U696:A2 3.271e-05
*END

*R_NET cfgreg_di_8 5.159e-01
*DRIVER cfgreg_di_8__UPF_LS:X
*CELL SAEDRVT14_LVLUBUF_IY2V1_1
*C2_R1_C1 2.580e-01 1.088e-05 2.580e-01 
*LOADS
*RC U695:A2 4.194e-06
*END

*R_NET cfgreg_di_5 6.273e-01
*DRIVER cfgreg_di_5__UPF_LS:X
*CELL SAEDRVT14_LVLUBUF_IY2V1_1
*C2_R1_C1 3.137e-01 1.362e-05 3.137e-01 
*LOADS
*RC U700:A2 5.755e-06
*END

*R_NET cfgreg_di_4 9.987e-01
*DRIVER cfgreg_di_4__UPF_LS:X
*CELL SAEDRVT14_LVLUBUF_IY2V1_1
*C2_R1_C1 4.994e-01 2.219e-05 4.994e-01 
*LOADS
*RC U699:A2 1.212e-05
*END

*R_NET cfgreg_di_3 5.471e-01
*DRIVER cfgreg_di_3__UPF_LS:X
*CELL SAEDRVT14_LVLUBUF_IY2V1_1
*C2_R1_C1 2.736e-01 1.161e-05 2.736e-01 
*LOADS
*RC U694:A2 4.598e-06
*END

*R_NET cfgreg_di_2 7.561e-01
*DRIVER cfgreg_di_2__UPF_LS:X
*CELL SAEDRVT14_LVLUBUF_IY2V1_1
*C2_R1_C1 3.781e-01 1.479e-05 3.781e-01 
*LOADS
*RC U693:A2 6.888e-06
*END

*R_NET cfgreg_di_1 4.901e-01
*DRIVER cfgreg_di_1__UPF_LS:X
*CELL SAEDRVT14_LVLUBUF_IY2V1_1
*C2_R1_C1 2.450e-01 1.004e-05 2.450e-01 
*LOADS
*RC U692:A2 3.784e-06
*END

*R_NET cfgreg_di_0 1.212e+00
*DRIVER cfgreg_di_0__UPF_LS:X
*CELL SAEDRVT14_LVLUBUF_IY2V1_1
*C2_R1_C1 6.059e-01 2.431e-05 6.059e-01 
*LOADS
*RC U691:A2 1.501e-05
*END

*R_NET cfgreg_do\[31\] 9.246e+00
*DRIVER config_en_reg:Q
*CELL SAEDRVT14_FSDPQ_V2LP_1
*C2_R1_C1 4.623e+00 9.070e-05 4.623e+00 
*LOADS
*RC U909:B 5.807e-05
*RC U688:A 1.315e-04
*RC U731:S 3.216e-05
*RC U733:S 3.533e-05
*RC U735:S 3.502e-05
*RC U737:S 4.033e-05
*RC U739:S 1.429e-04
*RC U740:S 4.894e-05
*RC cfgreg_do\[31\] 1.825e-04
*END

*R_NET cfgreg_do\[22\] 4.272e+00
*DRIVER config_ddr_reg:Q
*CELL SAEDRVT14_FSDPQ_V2LP_1
*C2_R1_C1 2.136e+00 4.848e-05 2.136e+00 
*LOADS
*RC U717:A 1.559e-05
*RC U718:A1 2.096e-05
*RC U722:A1 3.355e-05
*RC U725:A1 2.818e-05
*RC U728:A1 1.743e-05
*RC cfgreg_do\[22\] 5.707e-05
*END

*R_NET cfgreg_do\[21\] 2.102e+00
*DRIVER config_qspi_reg:Q
*CELL SAEDRVT14_FSDPQ_V2LP_1
*C2_R1_C1 1.051e+00 3.700e-05 1.051e+00 
*LOADS
*RC U829:A 1.425e-05
*RC U862:A1 1.859e-05
*RC cfgreg_do\[21\] 2.085e-05
*END

*R_NET cfgreg_do\[20\] 3.174e+00
*DRIVER config_cont_reg:Q
*CELL SAEDRVT14_FSDPQ_V2LP_1
*C2_R1_C1 1.587e+00 4.517e-05 1.587e+00 
*LOADS
*RC U836:A1 1.545e-05
*RC U853:A1 1.657e-05
*RC U867:A1 1.345e-05
*RC U887:A1 2.158e-05
*RC cfgreg_do\[20\] 4.095e-05
*END

*R_NET cfgreg_do\[19\] 2.267e+00
*DRIVER config_dummy_reg_3_:Q
*CELL SAEDRVT14_FSDPQ_V2LP_1
*C2_R1_C1 1.134e+00 3.575e-05 1.134e+00 
*LOADS
*RC U855:A 1.011e-05
*RC cfgreg_do\[19\] 3.041e-05
*END

*R_NET cfgreg_do\[18\] 2.569e+00
*DRIVER config_dummy_reg_2_:Q
*CELL SAEDRVT14_FSDPQ_V2LP_1
*C2_R1_C1 1.285e+00 5.473e-05 1.285e+00 
*LOADS
*RC U861:A1 2.309e-05
*RC cfgreg_do\[18\] 5.181e-05
*END

*R_NET cfgreg_do\[17\] 2.182e+00
*DRIVER config_dummy_reg_1_:Q
*CELL SAEDRVT14_FSDPQ_V2LP_1
*C2_R1_C1 1.091e+00 3.566e-05 1.091e+00 
*LOADS
*RC U869:A 9.792e-06
*RC cfgreg_do\[17\] 2.915e-05
*END

*R_NET cfgreg_do\[16\] 2.796e+00
*DRIVER config_dummy_reg_0_:Q
*CELL SAEDRVT14_FSDPQ_V2LP_1
*C2_R1_C1 1.398e+00 5.866e-05 1.398e+00 
*LOADS
*RC U879:A2 2.447e-05
*RC cfgreg_do\[16\] 5.898e-05
*END

*R_NET cfgreg_do\[11\] 2.603e+00
*DRIVER U732:X
*CELL SAEDRVT14_INV_S_0P5
*C2_R1_C1 1.301e+00 4.504e-05 1.301e+00 
*LOADS
*RC cfgreg_do\[11\] 4.508e-05
*END

*R_NET cfgreg_do\[10\] 2.558e+00
*DRIVER U734:X
*CELL SAEDRVT14_INV_S_0P5
*C2_R1_C1 1.279e+00 4.424e-05 1.279e+00 
*LOADS
*RC cfgreg_do\[10\] 4.361e-05
*END

*R_NET cfgreg_do\[9\] 2.415e+00
*DRIVER U736:X
*CELL SAEDRVT14_INV_S_0P5
*C2_R1_C1 1.208e+00 4.200e-05 1.208e+00 
*LOADS
*RC cfgreg_do\[9\] 3.940e-05
*END

*R_NET cfgreg_do\[8\] 2.554e+00
*DRIVER U738:X
*CELL SAEDRVT14_INV_S_0P5
*C2_R1_C1 1.277e+00 4.411e-05 1.277e+00 
*LOADS
*RC cfgreg_do\[8\] 4.344e-05
*END

*R_NET flash_csb 2.837e+00
*DRIVER U740:X
*CELL SAEDRVT14_MUX2_U_0P5
*C2_R1_C1 1.418e+00 4.268e-05 1.418e+00 
*LOADS
*RC cfgreg_do\[5\] 4.583e-05
*RC flash_csb 4.605e-05
*END

*R_NET flash_clk 2.803e+00
*DRIVER U739:X
*CELL SAEDRVT14_MUX2_U_0P5
*C2_R1_C1 1.402e+00 4.223e-05 1.402e+00 
*LOADS
*RC cfgreg_do\[4\] 4.509e-05
*RC flash_clk 4.488e-05
*END

*R_NET cfgreg_do_3 4.629e+00
*DRIVER flash_io3_di_UPF_LS:X
*CELL SAEDRVT14_LVLUBUF_IY2V1_1
*C2_R1_C1 2.315e+00 8.844e-05 2.315e+00 
*LOADS
*RC xfer/U100:A2 1.562e-04
*END

*R_NET cfgreg_do_2 3.591e+00
*DRIVER flash_io2_di_UPF_LS:X
*CELL SAEDRVT14_LVLUBUF_IY2V1_1
*C2_R1_C1 1.795e+00 6.913e-05 1.795e+00 
*LOADS
*RC xfer/U96:A2 9.818e-05
*END

*R_NET cfgreg_do_1 6.342e-01
*DRIVER flash_io1_di_UPF_LS:X
*CELL SAEDRVT14_LVLUBUF_IY2V1_1
*C2_R1_C1 3.171e-01 1.762e-05 3.171e-01 
*LOADS
*RC xfer/U52:A 5.708e-06
*END

*R_NET cfgreg_do_0 4.169e+00
*DRIVER flash_io0_di_UPF_LS:X
*CELL SAEDRVT14_LVLUBUF_IY2V1_1
*C2_R1_C1 2.084e+00 8.092e-05 2.084e+00 
*LOADS
*RC xfer/U57:A1 1.250e-04
*END

*R_NET rd_addr\[23\] 6.609e-01
*DRIVER rd_addr_reg_23_:Q
*CELL SAEDRVT14_FSDPQ_V2LP_1
*C2_R1_C1 3.304e-01 1.198e-05 3.304e-01 
*LOADS
*RC U667:A 4.553e-06
*RC add_x_2/U151:A 3.916e-06
*END

*R_NET rd_addr\[22\] 9.662e-01
*DRIVER rd_addr_reg_22_:Q
*CELL SAEDRVT14_FSDPQ_V2LP_1
*C2_R1_C1 4.831e-01 1.940e-05 4.831e-01 
*LOADS
*RC U670:A 5.131e-06
*RC add_x_2/U147:A 6.651e-06
*END

*R_NET rd_addr\[21\] 1.194e+00
*DRIVER rd_addr_reg_21_:Q
*CELL SAEDRVT14_FSDPQ_V2LP_1
*C2_R1_C1 5.969e-01 2.308e-05 5.969e-01 
*LOADS
*RC U662:A 1.021e-05
*RC add_x_2/U144:A 5.779e-06
*END

*R_NET rd_addr\[20\] 8.565e-01
*DRIVER rd_addr_reg_20_:Q
*CELL SAEDRVT14_FSDPQ_V2LP_1
*C2_R1_C1 4.282e-01 1.513e-05 4.282e-01 
*LOADS
*RC U647:A 6.738e-06
*RC add_x_2/U140:A 3.763e-06
*END

*R_NET rd_addr\[19\] 5.785e-01
*DRIVER rd_addr_reg_19_:Q
*CELL SAEDRVT14_FSDPQ_V2LP_1
*C2_R1_C1 2.892e-01 9.408e-06 2.892e-01 
*LOADS
*RC U650:A 2.617e-06
*RC add_x_2/U137:A 2.608e-06
*END

*R_NET rd_addr\[18\] 1.114e+00
*DRIVER rd_addr_reg_18_:Q
*CELL SAEDRVT14_FSDPQ_V2LP_1
*C2_R1_C1 5.568e-01 1.517e-05 5.568e-01 
*LOADS
*RC U660:A1 8.390e-06